
---------- Begin Simulation Statistics ----------
sim_seconds                                  0.001209                       # Number of seconds simulated
sim_ticks                                  1209264500                       # Number of ticks simulated
final_tick                               4807213601500                       # Number of ticks from beginning of simulation (restored from checkpoints and never reset)
sim_freq                                 1000000000000                       # Frequency of simulated ticks
host_inst_rate                               47267350                       # Simulator instruction rate (inst/s)
host_op_rate                                111608032                       # Simulator op (including micro ops) rate (op/s)
host_tick_rate                               39611675                       # Simulator tick rate (ticks/s)
host_mem_usage                                1526396                       # Number of bytes of host memory used
host_seconds                                    30.53                       # Real time elapsed on the host
sim_insts                                  1442974660                       # Number of instructions simulated
sim_ops                                    3407165543                       # Number of ops (including micro ops) simulated
system.clk_domain.voltage_domain.voltage            1                       # Voltage in Volts
system.clk_domain.clock                           500                       # Clock period in ticks
system.mem_cntrl.pwrStateResidencyTicks::UNDEFINED 4807213601500                       # Cumulative time (in ticks) in various power states
system.mem_cntrl.bytes_read::cpu.dtb.walker        15264                       # Number of bytes read from this memory
system.mem_cntrl.bytes_read::cpu.itb.walker          320                       # Number of bytes read from this memory
system.mem_cntrl.bytes_read::cpu.inst           30144                       # Number of bytes read from this memory
system.mem_cntrl.bytes_read::cpu.data           44288                       # Number of bytes read from this memory
system.mem_cntrl.bytes_read::total              90016                       # Number of bytes read from this memory
system.mem_cntrl.bytes_inst_read::cpu.inst        30144                       # Number of instructions bytes read from this memory
system.mem_cntrl.bytes_inst_read::total         30144                       # Number of instructions bytes read from this memory
system.mem_cntrl.bytes_written::writebacks        33088                       # Number of bytes written to this memory
system.mem_cntrl.bytes_written::total           33088                       # Number of bytes written to this memory
system.mem_cntrl.num_reads::cpu.dtb.walker         1908                       # Number of read requests responded to by this memory
system.mem_cntrl.num_reads::cpu.itb.walker           40                       # Number of read requests responded to by this memory
system.mem_cntrl.num_reads::cpu.inst              471                       # Number of read requests responded to by this memory
system.mem_cntrl.num_reads::cpu.data              692                       # Number of read requests responded to by this memory
system.mem_cntrl.num_reads::total                3111                       # Number of read requests responded to by this memory
system.mem_cntrl.num_writes::writebacks           517                       # Number of write requests responded to by this memory
system.mem_cntrl.num_writes::total                517                       # Number of write requests responded to by this memory
system.mem_cntrl.bw_read::cpu.dtb.walker     12622549                       # Total read bandwidth from this memory (bytes/s)
system.mem_cntrl.bw_read::cpu.itb.walker       264624                       # Total read bandwidth from this memory (bytes/s)
system.mem_cntrl.bw_read::cpu.inst           24927549                       # Total read bandwidth from this memory (bytes/s)
system.mem_cntrl.bw_read::cpu.data           36623915                       # Total read bandwidth from this memory (bytes/s)
system.mem_cntrl.bw_read::total              74438636                       # Total read bandwidth from this memory (bytes/s)
system.mem_cntrl.bw_inst_read::cpu.inst      24927549                       # Instruction read bandwidth from this memory (bytes/s)
system.mem_cntrl.bw_inst_read::total         24927549                       # Instruction read bandwidth from this memory (bytes/s)
system.mem_cntrl.bw_write::writebacks        27362087                       # Write bandwidth from this memory (bytes/s)
system.mem_cntrl.bw_write::total             27362087                       # Write bandwidth from this memory (bytes/s)
system.mem_cntrl.bw_total::writebacks        27362087                       # Total bandwidth to/from this memory (bytes/s)
system.mem_cntrl.bw_total::cpu.dtb.walker     12622549                       # Total bandwidth to/from this memory (bytes/s)
system.mem_cntrl.bw_total::cpu.itb.walker       264624                       # Total bandwidth to/from this memory (bytes/s)
system.mem_cntrl.bw_total::cpu.inst          24927549                       # Total bandwidth to/from this memory (bytes/s)
system.mem_cntrl.bw_total::cpu.data          36623915                       # Total bandwidth to/from this memory (bytes/s)
system.mem_cntrl.bw_total::total            101800723                       # Total bandwidth to/from this memory (bytes/s)
system.mem_cntrl.readReqs                        3111                       # Number of read requests accepted
system.mem_cntrl.writeReqs                        517                       # Number of write requests accepted
system.mem_cntrl.readBursts                      3111                       # Number of DRAM read bursts, including those serviced by the write queue
system.mem_cntrl.writeBursts                      517                       # Number of DRAM write bursts, including those merged in the write queue
system.mem_cntrl.bytesReadDRAM                 198976                       # Total number of bytes read from DRAM
system.mem_cntrl.bytesReadWrQ                     128                       # Total number of bytes read from write queue
system.mem_cntrl.bytesWritten                   33152                       # Total number of bytes written to DRAM
system.mem_cntrl.bytesReadSys                   90016                       # Total read bytes from the system interface side
system.mem_cntrl.bytesWrittenSys                33088                       # Total written bytes from the system interface side
system.mem_cntrl.servicedByWrQ                      2                       # Number of DRAM read bursts serviced by the write queue
system.mem_cntrl.mergedWrBursts                     0                       # Number of DRAM write bursts merged with an existing one
system.mem_cntrl.neitherReadNorWriteReqs            0                       # Number of requests that are neither read nor write
system.mem_cntrl.perBankRdBursts::0                87                       # Per bank write bursts
system.mem_cntrl.perBankRdBursts::1               150                       # Per bank write bursts
system.mem_cntrl.perBankRdBursts::2                50                       # Per bank write bursts
system.mem_cntrl.perBankRdBursts::3                38                       # Per bank write bursts
system.mem_cntrl.perBankRdBursts::4               285                       # Per bank write bursts
system.mem_cntrl.perBankRdBursts::5               250                       # Per bank write bursts
system.mem_cntrl.perBankRdBursts::6               776                       # Per bank write bursts
system.mem_cntrl.perBankRdBursts::7               197                       # Per bank write bursts
system.mem_cntrl.perBankRdBursts::8               587                       # Per bank write bursts
system.mem_cntrl.perBankRdBursts::9               162                       # Per bank write bursts
system.mem_cntrl.perBankRdBursts::10              153                       # Per bank write bursts
system.mem_cntrl.perBankRdBursts::11              107                       # Per bank write bursts
system.mem_cntrl.perBankRdBursts::12               46                       # Per bank write bursts
system.mem_cntrl.perBankRdBursts::13               69                       # Per bank write bursts
system.mem_cntrl.perBankRdBursts::14              101                       # Per bank write bursts
system.mem_cntrl.perBankRdBursts::15               51                       # Per bank write bursts
system.mem_cntrl.perBankWrBursts::0                42                       # Per bank write bursts
system.mem_cntrl.perBankWrBursts::1                65                       # Per bank write bursts
system.mem_cntrl.perBankWrBursts::2                22                       # Per bank write bursts
system.mem_cntrl.perBankWrBursts::3                30                       # Per bank write bursts
system.mem_cntrl.perBankWrBursts::4                 7                       # Per bank write bursts
system.mem_cntrl.perBankWrBursts::5                16                       # Per bank write bursts
system.mem_cntrl.perBankWrBursts::6                33                       # Per bank write bursts
system.mem_cntrl.perBankWrBursts::7                16                       # Per bank write bursts
system.mem_cntrl.perBankWrBursts::8                21                       # Per bank write bursts
system.mem_cntrl.perBankWrBursts::9                81                       # Per bank write bursts
system.mem_cntrl.perBankWrBursts::10               52                       # Per bank write bursts
system.mem_cntrl.perBankWrBursts::11               28                       # Per bank write bursts
system.mem_cntrl.perBankWrBursts::12               22                       # Per bank write bursts
system.mem_cntrl.perBankWrBursts::13               37                       # Per bank write bursts
system.mem_cntrl.perBankWrBursts::14               23                       # Per bank write bursts
system.mem_cntrl.perBankWrBursts::15               23                       # Per bank write bursts
system.mem_cntrl.numRdRetry                         0                       # Number of times read queue was full causing retry
system.mem_cntrl.numWrRetry                         0                       # Number of times write queue was full causing retry
system.mem_cntrl.totGap                    1207044500                       # Total gap between requests
system.mem_cntrl.readPktSize::0                     0                       # Read request sizes (log2)
system.mem_cntrl.readPktSize::1                     0                       # Read request sizes (log2)
system.mem_cntrl.readPktSize::2                     0                       # Read request sizes (log2)
system.mem_cntrl.readPktSize::3                  1948                       # Read request sizes (log2)
system.mem_cntrl.readPktSize::4                     0                       # Read request sizes (log2)
system.mem_cntrl.readPktSize::5                     0                       # Read request sizes (log2)
system.mem_cntrl.readPktSize::6                  1163                       # Read request sizes (log2)
system.mem_cntrl.writePktSize::0                    0                       # Write request sizes (log2)
system.mem_cntrl.writePktSize::1                    0                       # Write request sizes (log2)
system.mem_cntrl.writePktSize::2                    0                       # Write request sizes (log2)
system.mem_cntrl.writePktSize::3                    0                       # Write request sizes (log2)
system.mem_cntrl.writePktSize::4                    0                       # Write request sizes (log2)
system.mem_cntrl.writePktSize::5                    0                       # Write request sizes (log2)
system.mem_cntrl.writePktSize::6                  517                       # Write request sizes (log2)
system.mem_cntrl.rdQLenPdf::0                    2902                       # What read queue length does an incoming req see
system.mem_cntrl.rdQLenPdf::1                     186                       # What read queue length does an incoming req see
system.mem_cntrl.rdQLenPdf::2                      18                       # What read queue length does an incoming req see
system.mem_cntrl.rdQLenPdf::3                       3                       # What read queue length does an incoming req see
system.mem_cntrl.rdQLenPdf::4                       0                       # What read queue length does an incoming req see
system.mem_cntrl.rdQLenPdf::5                       0                       # What read queue length does an incoming req see
system.mem_cntrl.rdQLenPdf::6                       0                       # What read queue length does an incoming req see
system.mem_cntrl.rdQLenPdf::7                       0                       # What read queue length does an incoming req see
system.mem_cntrl.rdQLenPdf::8                       0                       # What read queue length does an incoming req see
system.mem_cntrl.rdQLenPdf::9                       0                       # What read queue length does an incoming req see
system.mem_cntrl.rdQLenPdf::10                      0                       # What read queue length does an incoming req see
system.mem_cntrl.rdQLenPdf::11                      0                       # What read queue length does an incoming req see
system.mem_cntrl.rdQLenPdf::12                      0                       # What read queue length does an incoming req see
system.mem_cntrl.rdQLenPdf::13                      0                       # What read queue length does an incoming req see
system.mem_cntrl.rdQLenPdf::14                      0                       # What read queue length does an incoming req see
system.mem_cntrl.rdQLenPdf::15                      0                       # What read queue length does an incoming req see
system.mem_cntrl.rdQLenPdf::16                      0                       # What read queue length does an incoming req see
system.mem_cntrl.rdQLenPdf::17                      0                       # What read queue length does an incoming req see
system.mem_cntrl.rdQLenPdf::18                      0                       # What read queue length does an incoming req see
system.mem_cntrl.rdQLenPdf::19                      0                       # What read queue length does an incoming req see
system.mem_cntrl.rdQLenPdf::20                      0                       # What read queue length does an incoming req see
system.mem_cntrl.rdQLenPdf::21                      0                       # What read queue length does an incoming req see
system.mem_cntrl.rdQLenPdf::22                      0                       # What read queue length does an incoming req see
system.mem_cntrl.rdQLenPdf::23                      0                       # What read queue length does an incoming req see
system.mem_cntrl.rdQLenPdf::24                      0                       # What read queue length does an incoming req see
system.mem_cntrl.rdQLenPdf::25                      0                       # What read queue length does an incoming req see
system.mem_cntrl.rdQLenPdf::26                      0                       # What read queue length does an incoming req see
system.mem_cntrl.rdQLenPdf::27                      0                       # What read queue length does an incoming req see
system.mem_cntrl.rdQLenPdf::28                      0                       # What read queue length does an incoming req see
system.mem_cntrl.rdQLenPdf::29                      0                       # What read queue length does an incoming req see
system.mem_cntrl.rdQLenPdf::30                      0                       # What read queue length does an incoming req see
system.mem_cntrl.rdQLenPdf::31                      0                       # What read queue length does an incoming req see
system.mem_cntrl.wrQLenPdf::0                       0                       # What write queue length does an incoming req see
system.mem_cntrl.wrQLenPdf::1                       0                       # What write queue length does an incoming req see
system.mem_cntrl.wrQLenPdf::2                       0                       # What write queue length does an incoming req see
system.mem_cntrl.wrQLenPdf::3                       0                       # What write queue length does an incoming req see
system.mem_cntrl.wrQLenPdf::4                       0                       # What write queue length does an incoming req see
system.mem_cntrl.wrQLenPdf::5                       0                       # What write queue length does an incoming req see
system.mem_cntrl.wrQLenPdf::6                       0                       # What write queue length does an incoming req see
system.mem_cntrl.wrQLenPdf::7                       0                       # What write queue length does an incoming req see
system.mem_cntrl.wrQLenPdf::8                       0                       # What write queue length does an incoming req see
system.mem_cntrl.wrQLenPdf::9                       0                       # What write queue length does an incoming req see
system.mem_cntrl.wrQLenPdf::10                      0                       # What write queue length does an incoming req see
system.mem_cntrl.wrQLenPdf::11                      0                       # What write queue length does an incoming req see
system.mem_cntrl.wrQLenPdf::12                      0                       # What write queue length does an incoming req see
system.mem_cntrl.wrQLenPdf::13                      0                       # What write queue length does an incoming req see
system.mem_cntrl.wrQLenPdf::14                      0                       # What write queue length does an incoming req see
system.mem_cntrl.wrQLenPdf::15                     10                       # What write queue length does an incoming req see
system.mem_cntrl.wrQLenPdf::16                     10                       # What write queue length does an incoming req see
system.mem_cntrl.wrQLenPdf::17                     28                       # What write queue length does an incoming req see
system.mem_cntrl.wrQLenPdf::18                     31                       # What write queue length does an incoming req see
system.mem_cntrl.wrQLenPdf::19                     31                       # What write queue length does an incoming req see
system.mem_cntrl.wrQLenPdf::20                     31                       # What write queue length does an incoming req see
system.mem_cntrl.wrQLenPdf::21                     31                       # What write queue length does an incoming req see
system.mem_cntrl.wrQLenPdf::22                     31                       # What write queue length does an incoming req see
system.mem_cntrl.wrQLenPdf::23                     32                       # What write queue length does an incoming req see
system.mem_cntrl.wrQLenPdf::24                     31                       # What write queue length does an incoming req see
system.mem_cntrl.wrQLenPdf::25                     31                       # What write queue length does an incoming req see
system.mem_cntrl.wrQLenPdf::26                     31                       # What write queue length does an incoming req see
system.mem_cntrl.wrQLenPdf::27                     32                       # What write queue length does an incoming req see
system.mem_cntrl.wrQLenPdf::28                     31                       # What write queue length does an incoming req see
system.mem_cntrl.wrQLenPdf::29                     32                       # What write queue length does an incoming req see
system.mem_cntrl.wrQLenPdf::30                     32                       # What write queue length does an incoming req see
system.mem_cntrl.wrQLenPdf::31                     31                       # What write queue length does an incoming req see
system.mem_cntrl.wrQLenPdf::32                     31                       # What write queue length does an incoming req see
system.mem_cntrl.wrQLenPdf::33                      0                       # What write queue length does an incoming req see
system.mem_cntrl.wrQLenPdf::34                      0                       # What write queue length does an incoming req see
system.mem_cntrl.wrQLenPdf::35                      0                       # What write queue length does an incoming req see
system.mem_cntrl.wrQLenPdf::36                      0                       # What write queue length does an incoming req see
system.mem_cntrl.wrQLenPdf::37                      0                       # What write queue length does an incoming req see
system.mem_cntrl.wrQLenPdf::38                      0                       # What write queue length does an incoming req see
system.mem_cntrl.wrQLenPdf::39                      0                       # What write queue length does an incoming req see
system.mem_cntrl.wrQLenPdf::40                      0                       # What write queue length does an incoming req see
system.mem_cntrl.wrQLenPdf::41                      0                       # What write queue length does an incoming req see
system.mem_cntrl.wrQLenPdf::42                      0                       # What write queue length does an incoming req see
system.mem_cntrl.wrQLenPdf::43                      0                       # What write queue length does an incoming req see
system.mem_cntrl.wrQLenPdf::44                      0                       # What write queue length does an incoming req see
system.mem_cntrl.wrQLenPdf::45                      0                       # What write queue length does an incoming req see
system.mem_cntrl.wrQLenPdf::46                      0                       # What write queue length does an incoming req see
system.mem_cntrl.wrQLenPdf::47                      0                       # What write queue length does an incoming req see
system.mem_cntrl.wrQLenPdf::48                      0                       # What write queue length does an incoming req see
system.mem_cntrl.wrQLenPdf::49                      0                       # What write queue length does an incoming req see
system.mem_cntrl.wrQLenPdf::50                      0                       # What write queue length does an incoming req see
system.mem_cntrl.wrQLenPdf::51                      0                       # What write queue length does an incoming req see
system.mem_cntrl.wrQLenPdf::52                      0                       # What write queue length does an incoming req see
system.mem_cntrl.wrQLenPdf::53                      0                       # What write queue length does an incoming req see
system.mem_cntrl.wrQLenPdf::54                      0                       # What write queue length does an incoming req see
system.mem_cntrl.wrQLenPdf::55                      0                       # What write queue length does an incoming req see
system.mem_cntrl.wrQLenPdf::56                      0                       # What write queue length does an incoming req see
system.mem_cntrl.wrQLenPdf::57                      0                       # What write queue length does an incoming req see
system.mem_cntrl.wrQLenPdf::58                      0                       # What write queue length does an incoming req see
system.mem_cntrl.wrQLenPdf::59                      0                       # What write queue length does an incoming req see
system.mem_cntrl.wrQLenPdf::60                      0                       # What write queue length does an incoming req see
system.mem_cntrl.wrQLenPdf::61                      0                       # What write queue length does an incoming req see
system.mem_cntrl.wrQLenPdf::62                      0                       # What write queue length does an incoming req see
system.mem_cntrl.wrQLenPdf::63                      0                       # What write queue length does an incoming req see
system.mem_cntrl.bytesPerActivate::samples         1092                       # Bytes accessed per row activation
system.mem_cntrl.bytesPerActivate::mean    212.630037                       # Bytes accessed per row activation
system.mem_cntrl.bytesPerActivate::gmean   132.397251                       # Bytes accessed per row activation
system.mem_cntrl.bytesPerActivate::stdev   254.621659                       # Bytes accessed per row activation
system.mem_cntrl.bytesPerActivate::0-127          554     50.73%     50.73% # Bytes accessed per row activation
system.mem_cntrl.bytesPerActivate::128-255          248     22.71%     73.44% # Bytes accessed per row activation
system.mem_cntrl.bytesPerActivate::256-383          105      9.62%     83.06% # Bytes accessed per row activation
system.mem_cntrl.bytesPerActivate::384-511           61      5.59%     88.64% # Bytes accessed per row activation
system.mem_cntrl.bytesPerActivate::512-639           26      2.38%     91.03% # Bytes accessed per row activation
system.mem_cntrl.bytesPerActivate::640-767           15      1.37%     92.40% # Bytes accessed per row activation
system.mem_cntrl.bytesPerActivate::768-895           13      1.19%     93.59% # Bytes accessed per row activation
system.mem_cntrl.bytesPerActivate::896-1023           13      1.19%     94.78% # Bytes accessed per row activation
system.mem_cntrl.bytesPerActivate::1024-1151           57      5.22%    100.00% # Bytes accessed per row activation
system.mem_cntrl.bytesPerActivate::total         1092                       # Bytes accessed per row activation
system.mem_cntrl.rdPerTurnAround::samples           31                       # Reads before turning the bus around for writes
system.mem_cntrl.rdPerTurnAround::mean      93.838710                       # Reads before turning the bus around for writes
system.mem_cntrl.rdPerTurnAround::gmean     70.573120                       # Reads before turning the bus around for writes
system.mem_cntrl.rdPerTurnAround::stdev     75.078668                       # Reads before turning the bus around for writes
system.mem_cntrl.rdPerTurnAround::16-31             4     12.90%     12.90% # Reads before turning the bus around for writes
system.mem_cntrl.rdPerTurnAround::32-47             7     22.58%     35.48% # Reads before turning the bus around for writes
system.mem_cntrl.rdPerTurnAround::48-63             6     19.35%     54.84% # Reads before turning the bus around for writes
system.mem_cntrl.rdPerTurnAround::64-79             4     12.90%     67.74% # Reads before turning the bus around for writes
system.mem_cntrl.rdPerTurnAround::112-127            1      3.23%     70.97% # Reads before turning the bus around for writes
system.mem_cntrl.rdPerTurnAround::128-143            1      3.23%     74.19% # Reads before turning the bus around for writes
system.mem_cntrl.rdPerTurnAround::160-175            1      3.23%     77.42% # Reads before turning the bus around for writes
system.mem_cntrl.rdPerTurnAround::176-191            3      9.68%     87.10% # Reads before turning the bus around for writes
system.mem_cntrl.rdPerTurnAround::208-223            2      6.45%     93.55% # Reads before turning the bus around for writes
system.mem_cntrl.rdPerTurnAround::224-239            1      3.23%     96.77% # Reads before turning the bus around for writes
system.mem_cntrl.rdPerTurnAround::288-303            1      3.23%    100.00% # Reads before turning the bus around for writes
system.mem_cntrl.rdPerTurnAround::total            31                       # Reads before turning the bus around for writes
system.mem_cntrl.wrPerTurnAround::samples           31                       # Writes before turning the bus around for reads
system.mem_cntrl.wrPerTurnAround::mean      16.709677                       # Writes before turning the bus around for reads
system.mem_cntrl.wrPerTurnAround::gmean     16.677683                       # Writes before turning the bus around for reads
system.mem_cntrl.wrPerTurnAround::stdev      1.070624                       # Writes before turning the bus around for reads
system.mem_cntrl.wrPerTurnAround::16               21     67.74%     67.74% # Writes before turning the bus around for reads
system.mem_cntrl.wrPerTurnAround::18                8     25.81%     93.55% # Writes before turning the bus around for reads
system.mem_cntrl.wrPerTurnAround::19                2      6.45%    100.00% # Writes before turning the bus around for reads
system.mem_cntrl.wrPerTurnAround::total            31                       # Writes before turning the bus around for reads
system.mem_cntrl.totQLat                     61464750                       # Total ticks spent queuing
system.mem_cntrl.totMemAccLat               119758500                       # Total ticks spent from burst creation until serviced by the DRAM
system.mem_cntrl.totBusLat                   15545000                       # Total ticks spent in databus transfers
system.mem_cntrl.avgQLat                     19769.94                       # Average queueing delay per DRAM burst
system.mem_cntrl.avgBusLat                    5000.00                       # Average bus latency per DRAM burst
system.mem_cntrl.avgMemAccLat                38519.94                       # Average memory access latency per DRAM burst
system.mem_cntrl.avgRdBW                       164.54                       # Average DRAM read bandwidth in MiByte/s
system.mem_cntrl.avgWrBW                        27.42                       # Average achieved write bandwidth in MiByte/s
system.mem_cntrl.avgRdBWSys                     74.44                       # Average system read bandwidth in MiByte/s
system.mem_cntrl.avgWrBWSys                     27.36                       # Average system write bandwidth in MiByte/s
system.mem_cntrl.peakBW                      12800.00                       # Theoretical peak bandwidth in MiByte/s
system.mem_cntrl.busUtil                         1.50                       # Data bus utilization in percentage
system.mem_cntrl.busUtilRead                     1.29                       # Data bus utilization in percentage for reads
system.mem_cntrl.busUtilWrite                    0.21                       # Data bus utilization in percentage for writes
system.mem_cntrl.avgRdQLen                       1.15                       # Average read queue length when enqueuing
system.mem_cntrl.avgWrQLen                      25.13                       # Average write queue length when enqueuing
system.mem_cntrl.readRowHits                     2279                       # Number of row buffer hits during reads
system.mem_cntrl.writeRowHits                     256                       # Number of row buffer hits during writes
system.mem_cntrl.readRowHitRate                 73.30                       # Row buffer hit rate for reads
system.mem_cntrl.writeRowHitRate                49.52                       # Row buffer hit rate for writes
system.mem_cntrl.avgGap                     332702.45                       # Average gap between requests
system.mem_cntrl.pageHitRate                    69.91                       # Row buffer hit rate, read and write combined
system.mem_cntrl_0.actEnergy                  4740960                       # Energy for activate commands per rank (pJ)
system.mem_cntrl_0.preEnergy                  2519880                       # Energy for precharge commands per rank (pJ)
system.mem_cntrl_0.readEnergy                13087620                       # Energy for read commands per rank (pJ)
system.mem_cntrl_0.writeEnergy                1205820                       # Energy for write commands per rank (pJ)
system.mem_cntrl_0.refreshEnergy         91581360.000000                       # Energy for refresh commands per rank (pJ)
system.mem_cntrl_0.actBackEnergy             53092080                       # Energy for active background per rank (pJ)
system.mem_cntrl_0.preBackEnergy              2684160                       # Energy for precharge background per rank (pJ)
system.mem_cntrl_0.actPowerDownEnergy       317036280                       # Energy for active power-down per rank (pJ)
system.mem_cntrl_0.prePowerDownEnergy       106098240                       # Energy for precharge power-down per rank (pJ)
system.mem_cntrl_0.selfRefreshEnergy         32539860                       # Energy for self refresh per rank (pJ)
system.mem_cntrl_0.totalEnergy              624685590                       # Total energy per rank (pJ)
system.mem_cntrl_0.averagePower            516.583088                       # Core power per rank (mW)
system.mem_cntrl_0.totalIdleTime           1085881500                       # Total Idle time Per DRAM Rank
system.mem_cntrl_0.memoryStateTime::IDLE      3186000                       # Time in different power states
system.mem_cntrl_0.memoryStateTime::REF      38794000                       # Time in different power states
system.mem_cntrl_0.memoryStateTime::SREF    114654750                       # Time in different power states
system.mem_cntrl_0.memoryStateTime::PRE_PDN    276304000                       # Time in different power states
system.mem_cntrl_0.memoryStateTime::ACT      81692250                       # Time in different power states
system.mem_cntrl_0.memoryStateTime::ACT_PDN    695215250                       # Time in different power states
system.mem_cntrl_1.actEnergy                  3063060                       # Energy for activate commands per rank (pJ)
system.mem_cntrl_1.preEnergy                  1624260                       # Energy for precharge commands per rank (pJ)
system.mem_cntrl_1.readEnergy                 9124920                       # Energy for read commands per rank (pJ)
system.mem_cntrl_1.writeEnergy                1498140                       # Energy for write commands per rank (pJ)
system.mem_cntrl_1.refreshEnergy         81132480.000000                       # Energy for refresh commands per rank (pJ)
system.mem_cntrl_1.actBackEnergy             45624510                       # Energy for active background per rank (pJ)
system.mem_cntrl_1.preBackEnergy              3177120                       # Energy for precharge background per rank (pJ)
system.mem_cntrl_1.actPowerDownEnergy       251688630                       # Energy for active power-down per rank (pJ)
system.mem_cntrl_1.prePowerDownEnergy        97986720                       # Energy for precharge power-down per rank (pJ)
system.mem_cntrl_1.selfRefreshEnergy         80161740                       # Energy for self refresh per rank (pJ)
system.mem_cntrl_1.totalEnergy              575081580                       # Total energy per rank (pJ)
system.mem_cntrl_1.averagePower            475.563105                       # Core power per rank (mW)
system.mem_cntrl_1.totalIdleTime           1097702000                       # Total Idle time Per DRAM Rank
system.mem_cntrl_1.memoryStateTime::IDLE      4830000                       # Time in different power states
system.mem_cntrl_1.memoryStateTime::REF      34416000                       # Time in different power states
system.mem_cntrl_1.memoryStateTime::SREF    297190250                       # Time in different power states
system.mem_cntrl_1.memoryStateTime::PRE_PDN    252147500                       # Time in different power states
system.mem_cntrl_1.memoryStateTime::ACT      69013250                       # Time in different power states
system.mem_cntrl_1.memoryStateTime::ACT_PDN    551899750                       # Time in different power states
system.pwrStateResidencyTicks::UNDEFINED 4807213601500                       # Cumulative time (in ticks) in various power states
system.apicbridge.pwrStateResidencyTicks::UNDEFINED 4807213601500                       # Cumulative time (in ticks) in various power states
system.bridge.pwrStateResidencyTicks::UNDEFINED 4807213601500                       # Cumulative time (in ticks) in various power states
system.cpu.branchPred.lookups                  441053                       # Number of BP lookups
system.cpu.branchPred.condPredicted            441053                       # Number of conditional branches predicted
system.cpu.branchPred.condIncorrect             48424                       # Number of conditional branches incorrect
system.cpu.branchPred.BTBLookups               377165                       # Number of BTB lookups
system.cpu.branchPred.BTBHits                       0                       # Number of BTB hits
system.cpu.branchPred.BTBCorrect                    0                       # Number of correct BTB predictions (this stat may not work properly.
system.cpu.branchPred.BTBHitPct              0.000000                       # BTB Hit Percentage
system.cpu.branchPred.usedRAS                   42238                       # Number of times the RAS was used to get a target.
system.cpu.branchPred.RASInCorrect               9172                       # Number of incorrect RAS predictions.
system.cpu.branchPred.correctpredictionPercent    89.020821                       # Correct prediction percentage
system.cpu.branchPred.indirectLookups          377165                       # Number of indirect predictor lookups.
system.cpu.branchPred.indirectHits             137708                       # Number of indirect target hits.
system.cpu.branchPred.indirectMisses           239457                       # Number of indirect misses.
system.cpu.branchPredindirectMispredicted        31423                       # Number of mispredicted indirect branches.
system.cpu.dtb.walker.pwrStateResidencyTicks::UNDEFINED 4807213601500                       # Cumulative time (in ticks) in various power states
system.cpu.dtb.rdAccesses                      357629                       # TLB accesses on read requests
system.cpu.dtb.wrAccesses                      225712                       # TLB accesses on write requests
system.cpu.dtb.rdMisses                          9221                       # TLB misses on read requests
system.cpu.dtb.wrMisses                          1868                       # TLB misses on write requests
system.cpu.apic_clk_domain.clock                 8000                       # Clock period in ticks
system.cpu.interrupts.pwrStateResidencyTicks::UNDEFINED 4807213601500                       # Cumulative time (in ticks) in various power states
system.cpu.itb.walker.pwrStateResidencyTicks::UNDEFINED 4807213601500                       # Cumulative time (in ticks) in various power states
system.cpu.itb.rdAccesses                           0                       # TLB accesses on read requests
system.cpu.itb.wrAccesses                      275470                       # TLB accesses on write requests
system.cpu.itb.rdMisses                             0                       # TLB misses on read requests
system.cpu.itb.wrMisses                          1381                       # TLB misses on write requests
system.cpu.pwrStateResidencyTicks::ON      2449582500                       # Cumulative time (in ticks) in various power states
system.cpu.numCycles                          2418529                       # number of cpu cycles simulated
system.cpu.numWorkItemsStarted                      0                       # number of work items this cpu started
system.cpu.numWorkItemsCompleted                    0                       # number of work items this cpu completed
system.cpu.fetch.icacheStallCycles             561387                       # Number of cycles fetch is stalled on an Icache miss
system.cpu.fetch.Insts                        1930432                       # Number of instructions fetch has processed
system.cpu.fetch.Branches                      441053                       # Number of branches that fetch encountered
system.cpu.fetch.predictedBranches             179946                       # Number of branches that fetch has predicted taken
system.cpu.fetch.Cycles                       1575759                       # Number of cycles fetch has run and was not squashing or blocked
system.cpu.fetch.SquashCycles                  105714                       # Number of cycles fetch has spent squashing
system.cpu.fetch.TlbCycles                      51052                       # Number of cycles fetch has spent waiting for tlb
system.cpu.fetch.MiscStallCycles                 1598                       # Number of cycles fetch has spent waiting on interrupts, or bad addresses, or out of MSHRs
system.cpu.fetch.PendingTrapStallCycles         35018                       # Number of stall cycles due to pending traps
system.cpu.fetch.PendingQuiesceStallCycles           19                       # Number of stall cycles due to pending quiesce instructions
system.cpu.fetch.IcacheWaitRetryStallCycles           13                       # Number of stall cycles due to full MSHR
system.cpu.fetch.CacheLines                    269842                       # Number of cache lines fetched
system.cpu.fetch.IcacheSquashes                 18755                       # Number of outstanding Icache misses that were squashed
system.cpu.fetch.ItlbSquashes                     696                       # Number of outstanding ITLB misses that were squashed
system.cpu.fetch.rateDist::samples            2277703                       # Number of instructions fetched each cycle (Total)
system.cpu.fetch.rateDist::mean              1.703291                       # Number of instructions fetched each cycle (Total)
system.cpu.fetch.rateDist::stdev             3.059126                       # Number of instructions fetched each cycle (Total)
system.cpu.fetch.rateDist::underflows               0      0.00%      0.00% # Number of instructions fetched each cycle (Total)
system.cpu.fetch.rateDist::0                  1649096     72.40%     72.40% # Number of instructions fetched each cycle (Total)
system.cpu.fetch.rateDist::1                    60139      2.64%     75.04% # Number of instructions fetched each cycle (Total)
system.cpu.fetch.rateDist::2                    30013      1.32%     76.36% # Number of instructions fetched each cycle (Total)
system.cpu.fetch.rateDist::3                    38636      1.70%     78.06% # Number of instructions fetched each cycle (Total)
system.cpu.fetch.rateDist::4                    38263      1.68%     79.74% # Number of instructions fetched each cycle (Total)
system.cpu.fetch.rateDist::5                    33998      1.49%     81.23% # Number of instructions fetched each cycle (Total)
system.cpu.fetch.rateDist::6                    34709      1.52%     82.75% # Number of instructions fetched each cycle (Total)
system.cpu.fetch.rateDist::7                    30570      1.34%     84.09% # Number of instructions fetched each cycle (Total)
system.cpu.fetch.rateDist::8                   362279     15.91%    100.00% # Number of instructions fetched each cycle (Total)
system.cpu.fetch.rateDist::overflows                0      0.00%    100.00% # Number of instructions fetched each cycle (Total)
system.cpu.fetch.rateDist::min_value                0                       # Number of instructions fetched each cycle (Total)
system.cpu.fetch.rateDist::max_value                8                       # Number of instructions fetched each cycle (Total)
system.cpu.fetch.rateDist::total              2277703                       # Number of instructions fetched each cycle (Total)
system.cpu.fetch.branchRate                  0.182364                       # Number of branch fetches per cycle
system.cpu.fetch.rate                        0.798184                       # Number of inst fetches per cycle
system.cpu.decode.IdleCycles                   535835                       # Number of cycles decode is idle
system.cpu.decode.BlockedCycles               1173199                       # Number of cycles decode is blocked
system.cpu.decode.RunCycles                    451104                       # Number of cycles decode is running
system.cpu.decode.UnblockCycles                 64708                       # Number of cycles decode is unblocking
system.cpu.decode.SquashCycles                  52857                       # Number of cycles decode is squashing
system.cpu.decode.DecodedInsts                3468174                       # Number of instructions handled by decode
system.cpu.rename.SquashCycles                  52857                       # Number of cycles rename is squashing
system.cpu.rename.IdleCycles                   577717                       # Number of cycles rename is idle
system.cpu.rename.BlockCycles                  517110                       # Number of cycles rename is blocking
system.cpu.rename.serializeStallCycles         355423                       # count of cycles rename stalled for serializing inst
system.cpu.rename.RunCycles                    468110                       # Number of cycles rename is running
system.cpu.rename.UnblockCycles                306486                       # Number of cycles rename is unblocking
system.cpu.rename.RenamedInsts                3261975                       # Number of instructions processed by rename
system.cpu.rename.ROBFullEvents                  2927                       # Number of times rename has blocked due to ROB full
system.cpu.rename.IQFullEvents                  29688                       # Number of times rename has blocked due to IQ full
system.cpu.rename.LQFullEvents                  23775                       # Number of times rename has blocked due to LQ full
system.cpu.rename.SQFullEvents                 233082                       # Number of times rename has blocked due to SQ full
system.cpu.rename.RenamedOperands             3598826                       # Number of destination operands rename has renamed
system.cpu.rename.RenameLookups               8237891                       # Number of register rename lookups that rename has made
system.cpu.rename.int_rename_lookups          5043911                       # Number of integer rename lookups
system.cpu.rename.fp_rename_lookups             12361                       # Number of floating rename lookups
system.cpu.rename.CommittedMaps               1966139                       # Number of HB maps that are committed
system.cpu.rename.UndoneMaps                  1632687                       # Number of HB maps that are undone due to squashing
system.cpu.rename.serializingInsts              13962                       # count of serializing insts renamed
system.cpu.rename.tempSerializingInsts          13974                       # count of temporary serializing insts renamed
system.cpu.rename.skidInsts                    287357                       # count of insts added to the skid buffer
system.cpu.memDep0.insertedLoads               433088                       # Number of loads inserted to the mem dependence unit.
system.cpu.memDep0.insertedStores              271108                       # Number of stores inserted to the mem dependence unit.
system.cpu.memDep0.conflictingLoads             29791                       # Number of conflicting loads.
system.cpu.memDep0.conflictingStores            28915                       # Number of conflicting stores.
system.cpu.iq.iqInstsAdded                    2911070                       # Number of instructions added to the IQ (excludes non-spec)
system.cpu.iq.iqNonSpecInstsAdded               16217                       # Number of non-speculative instructions added to the IQ
system.cpu.iq.iqInstsIssued                   2522147                       # Number of instructions issued
system.cpu.iq.iqSquashedInstsIssued             18525                       # Number of squashed instructions issued
system.cpu.iq.iqSquashedInstsExamined         1164845                       # Number of squashed instructions iterated over during squash; mainly for profiling
system.cpu.iq.iqSquashedOperandsExamined      1725578                       # Number of squashed operands that are examined and possibly removed from graph
system.cpu.iq.iqSquashedNonSpecRemoved           4546                       # Number of squashed non-spec instructions that were removed
system.cpu.iq.issued_per_cycle::samples       2277703                       # Number of insts issued each cycle
system.cpu.iq.issued_per_cycle::mean         1.107320                       # Number of insts issued each cycle
system.cpu.iq.issued_per_cycle::stdev        1.979247                       # Number of insts issued each cycle
system.cpu.iq.issued_per_cycle::underflows            0      0.00%      0.00% # Number of insts issued each cycle
system.cpu.iq.issued_per_cycle::0             1528312     67.10%     67.10% # Number of insts issued each cycle
system.cpu.iq.issued_per_cycle::1              192650      8.46%     75.56% # Number of insts issued each cycle
system.cpu.iq.issued_per_cycle::2              128885      5.66%     81.22% # Number of insts issued each cycle
system.cpu.iq.issued_per_cycle::3              105103      4.61%     85.83% # Number of insts issued each cycle
system.cpu.iq.issued_per_cycle::4               94948      4.17%     90.00% # Number of insts issued each cycle
system.cpu.iq.issued_per_cycle::5               83008      3.64%     93.64% # Number of insts issued each cycle
system.cpu.iq.issued_per_cycle::6               75949      3.33%     96.98% # Number of insts issued each cycle
system.cpu.iq.issued_per_cycle::7               44892      1.97%     98.95% # Number of insts issued each cycle
system.cpu.iq.issued_per_cycle::8               23956      1.05%    100.00% # Number of insts issued each cycle
system.cpu.iq.issued_per_cycle::overflows            0      0.00%    100.00% # Number of insts issued each cycle
system.cpu.iq.issued_per_cycle::min_value            0                       # Number of insts issued each cycle
system.cpu.iq.issued_per_cycle::max_value            8                       # Number of insts issued each cycle
system.cpu.iq.issued_per_cycle::total         2277703                       # Number of insts issued each cycle
system.cpu.iq.fu_full::No_OpClass                   0      0.00%      0.00% # attempts to use FU when none available
system.cpu.iq.fu_full::IntAlu                   23776     65.12%     65.12% # attempts to use FU when none available
system.cpu.iq.fu_full::IntMult                      0      0.00%     65.12% # attempts to use FU when none available
system.cpu.iq.fu_full::IntDiv                       0      0.00%     65.12% # attempts to use FU when none available
system.cpu.iq.fu_full::FloatAdd                    70      0.19%     65.31% # attempts to use FU when none available
system.cpu.iq.fu_full::FloatCmp                     0      0.00%     65.31% # attempts to use FU when none available
system.cpu.iq.fu_full::FloatCvt                     0      0.00%     65.31% # attempts to use FU when none available
system.cpu.iq.fu_full::FloatMult                    0      0.00%     65.31% # attempts to use FU when none available
system.cpu.iq.fu_full::FloatMultAcc                 0      0.00%     65.31% # attempts to use FU when none available
system.cpu.iq.fu_full::FloatDiv                     0      0.00%     65.31% # attempts to use FU when none available
system.cpu.iq.fu_full::FloatMisc                    0      0.00%     65.31% # attempts to use FU when none available
system.cpu.iq.fu_full::FloatSqrt                    0      0.00%     65.31% # attempts to use FU when none available
system.cpu.iq.fu_full::SimdAdd                      0      0.00%     65.31% # attempts to use FU when none available
system.cpu.iq.fu_full::SimdAddAcc                   0      0.00%     65.31% # attempts to use FU when none available
system.cpu.iq.fu_full::SimdAlu                      0      0.00%     65.31% # attempts to use FU when none available
system.cpu.iq.fu_full::SimdCmp                      0      0.00%     65.31% # attempts to use FU when none available
system.cpu.iq.fu_full::SimdCvt                      0      0.00%     65.31% # attempts to use FU when none available
system.cpu.iq.fu_full::SimdMisc                     0      0.00%     65.31% # attempts to use FU when none available
system.cpu.iq.fu_full::SimdMult                     0      0.00%     65.31% # attempts to use FU when none available
system.cpu.iq.fu_full::SimdMultAcc                  0      0.00%     65.31% # attempts to use FU when none available
system.cpu.iq.fu_full::SimdShift                    0      0.00%     65.31% # attempts to use FU when none available
system.cpu.iq.fu_full::SimdShiftAcc                 0      0.00%     65.31% # attempts to use FU when none available
system.cpu.iq.fu_full::SimdSqrt                     0      0.00%     65.31% # attempts to use FU when none available
system.cpu.iq.fu_full::SimdFloatAdd                 0      0.00%     65.31% # attempts to use FU when none available
system.cpu.iq.fu_full::SimdFloatAlu                 0      0.00%     65.31% # attempts to use FU when none available
system.cpu.iq.fu_full::SimdFloatCmp                 0      0.00%     65.31% # attempts to use FU when none available
system.cpu.iq.fu_full::SimdFloatCvt                 0      0.00%     65.31% # attempts to use FU when none available
system.cpu.iq.fu_full::SimdFloatDiv                 0      0.00%     65.31% # attempts to use FU when none available
system.cpu.iq.fu_full::SimdFloatMisc                0      0.00%     65.31% # attempts to use FU when none available
system.cpu.iq.fu_full::SimdFloatMult                0      0.00%     65.31% # attempts to use FU when none available
system.cpu.iq.fu_full::SimdFloatMultAcc             0      0.00%     65.31% # attempts to use FU when none available
system.cpu.iq.fu_full::SimdFloatSqrt                0      0.00%     65.31% # attempts to use FU when none available
system.cpu.iq.fu_full::MemRead                   8965     24.55%     89.87% # attempts to use FU when none available
system.cpu.iq.fu_full::MemWrite                  3655     10.01%     99.88% # attempts to use FU when none available
system.cpu.iq.fu_full::FloatMemRead                25      0.07%     99.95% # attempts to use FU when none available
system.cpu.iq.fu_full::FloatMemWrite               19      0.05%    100.00% # attempts to use FU when none available
system.cpu.iq.fu_full::IprAccess                    0      0.00%    100.00% # attempts to use FU when none available
system.cpu.iq.fu_full::InstPrefetch                 0      0.00%    100.00% # attempts to use FU when none available
system.cpu.iq.FU_type_0::No_OpClass             33892      1.34%      1.34% # Type of FU issued
system.cpu.iq.FU_type_0::IntAlu               1868903     74.10%     75.44% # Type of FU issued
system.cpu.iq.FU_type_0::IntMult                 1434      0.06%     75.50% # Type of FU issued
system.cpu.iq.FU_type_0::IntDiv                  1949      0.08%     75.58% # Type of FU issued
system.cpu.iq.FU_type_0::FloatAdd                3128      0.12%     75.70% # Type of FU issued
system.cpu.iq.FU_type_0::FloatCmp                   0      0.00%     75.70% # Type of FU issued
system.cpu.iq.FU_type_0::FloatCvt                   0      0.00%     75.70% # Type of FU issued
system.cpu.iq.FU_type_0::FloatMult                  0      0.00%     75.70% # Type of FU issued
system.cpu.iq.FU_type_0::FloatMultAcc               0      0.00%     75.70% # Type of FU issued
system.cpu.iq.FU_type_0::FloatDiv                   0      0.00%     75.70% # Type of FU issued
system.cpu.iq.FU_type_0::FloatMisc                  0      0.00%     75.70% # Type of FU issued
system.cpu.iq.FU_type_0::FloatSqrt                  0      0.00%     75.70% # Type of FU issued
system.cpu.iq.FU_type_0::SimdAdd                    0      0.00%     75.70% # Type of FU issued
system.cpu.iq.FU_type_0::SimdAddAcc                 0      0.00%     75.70% # Type of FU issued
system.cpu.iq.FU_type_0::SimdAlu                    0      0.00%     75.70% # Type of FU issued
system.cpu.iq.FU_type_0::SimdCmp                    0      0.00%     75.70% # Type of FU issued
system.cpu.iq.FU_type_0::SimdCvt                    0      0.00%     75.70% # Type of FU issued
system.cpu.iq.FU_type_0::SimdMisc                   0      0.00%     75.70% # Type of FU issued
system.cpu.iq.FU_type_0::SimdMult                   0      0.00%     75.70% # Type of FU issued
system.cpu.iq.FU_type_0::SimdMultAcc                0      0.00%     75.70% # Type of FU issued
system.cpu.iq.FU_type_0::SimdShift                  0      0.00%     75.70% # Type of FU issued
system.cpu.iq.FU_type_0::SimdShiftAcc               0      0.00%     75.70% # Type of FU issued
system.cpu.iq.FU_type_0::SimdSqrt                   0      0.00%     75.70% # Type of FU issued
system.cpu.iq.FU_type_0::SimdFloatAdd               0      0.00%     75.70% # Type of FU issued
system.cpu.iq.FU_type_0::SimdFloatAlu               0      0.00%     75.70% # Type of FU issued
system.cpu.iq.FU_type_0::SimdFloatCmp               0      0.00%     75.70% # Type of FU issued
system.cpu.iq.FU_type_0::SimdFloatCvt               0      0.00%     75.70% # Type of FU issued
system.cpu.iq.FU_type_0::SimdFloatDiv               0      0.00%     75.70% # Type of FU issued
system.cpu.iq.FU_type_0::SimdFloatMisc              0      0.00%     75.70% # Type of FU issued
system.cpu.iq.FU_type_0::SimdFloatMult              0      0.00%     75.70% # Type of FU issued
system.cpu.iq.FU_type_0::SimdFloatMultAcc            0      0.00%     75.70% # Type of FU issued
system.cpu.iq.FU_type_0::SimdFloatSqrt              0      0.00%     75.70% # Type of FU issued
system.cpu.iq.FU_type_0::MemRead               375356     14.88%     90.58% # Type of FU issued
system.cpu.iq.FU_type_0::MemWrite              235953      9.36%     99.94% # Type of FU issued
system.cpu.iq.FU_type_0::FloatMemRead            1456      0.06%    100.00% # Type of FU issued
system.cpu.iq.FU_type_0::FloatMemWrite             76      0.00%    100.00% # Type of FU issued
system.cpu.iq.FU_type_0::IprAccess                  0      0.00%    100.00% # Type of FU issued
system.cpu.iq.FU_type_0::InstPrefetch               0      0.00%    100.00% # Type of FU issued
system.cpu.iq.FU_type_0::total                2522147                       # Type of FU issued
system.cpu.iq.rate                           1.042843                       # Inst issue rate
system.cpu.iq.fu_busy_cnt                       36510                       # FU busy when requested
system.cpu.iq.fu_busy_rate                   0.014476                       # FU busy rate (busy events/executed inst)
system.cpu.iq.int_inst_queue_reads            7367086                       # Number of integer instruction queue reads
system.cpu.iq.int_inst_queue_writes           4081758                       # Number of integer instruction queue writes
system.cpu.iq.int_inst_queue_wakeup_accesses      2363674                       # Number of integer instruction queue wakeup accesses
system.cpu.iq.fp_inst_queue_reads                9945                       # Number of floating instruction queue reads
system.cpu.iq.fp_inst_queue_writes              11570                       # Number of floating instruction queue writes
system.cpu.iq.fp_inst_queue_wakeup_accesses         4118                       # Number of floating instruction queue wakeup accesses
system.cpu.iq.int_alu_accesses                2519831                       # Number of integer alu accesses
system.cpu.iq.fp_alu_accesses                    4934                       # Number of floating point alu accesses
system.cpu.iew.lsq.thread0.forwLoads            31983                       # Number of loads that had data forwarded from stores
system.cpu.iew.lsq.thread0.invAddrLoads             0                       # Number of loads ignored due to an invalid address
system.cpu.iew.lsq.thread0.squashedLoads       174322                       # Number of loads squashed
system.cpu.iew.lsq.thread0.ignoredResponses          567                       # Number of memory responses ignored because the instruction is squashed
system.cpu.iew.lsq.thread0.memOrderViolation         1234                       # Number of memory ordering violations
system.cpu.iew.lsq.thread0.squashedStores        80242                       # Number of stores squashed
system.cpu.iew.lsq.thread0.invAddrSwpfs             0                       # Number of software prefetches ignored due to an invalid address
system.cpu.iew.lsq.thread0.blockedLoads             0                       # Number of blocked loads due to partial load-store forwarding
system.cpu.iew.lsq.thread0.rescheduledLoads         1419                       # Number of loads that were rescheduled
system.cpu.iew.lsq.thread0.cacheBlocked          2579                       # Number of times an access to memory failed due to the cache being blocked
system.cpu.iew.iewIdleCycles                        0                       # Number of cycles IEW is idle
system.cpu.iew.iewSquashCycles                  52857                       # Number of cycles IEW is squashing
system.cpu.iew.iewBlockCycles                  283355                       # Number of cycles IEW is blocking
system.cpu.iew.iewUnblockCycles                133289                       # Number of cycles IEW is unblocking
system.cpu.iew.iewDispatchedInsts             2927307                       # Number of instructions dispatched to IQ
system.cpu.iew.iewDispSquashedInsts              5509                       # Number of squashed instructions skipped by dispatch
system.cpu.iew.iewDispLoadInsts                433088                       # Number of dispatched load instructions
system.cpu.iew.iewDispStoreInsts               271108                       # Number of dispatched store instructions
system.cpu.iew.iewDispNonSpecInsts              14812                       # Number of dispatched non-speculative instructions
system.cpu.iew.iewIQFullEvents                   1110                       # Number of times the IQ has become full, causing a stall
system.cpu.iew.iewLSQFullEvents                131708                       # Number of times the LSQ has become full, causing a stall
system.cpu.iew.memOrderViolationEvents           1234                       # Number of memory order violations
system.cpu.iew.predictedTakenIncorrect          19148                       # Number of branches that were predicted taken incorrectly
system.cpu.iew.predictedNotTakenIncorrect        44908                       # Number of branches that were predicted not taken incorrectly
system.cpu.iew.branchMispredicts                64056                       # Number of branch mispredicts detected at execute
system.cpu.iew.iewExecutedInsts               2413216                       # Number of executed instructions
system.cpu.iew.iewExecLoadInsts                348355                       # Number of load instructions executed
system.cpu.iew.iewExecSquashedInsts             97979                       # Number of squashed instructions skipped in execute
system.cpu.iew.exec_swp                             0                       # number of swp insts executed
system.cpu.iew.exec_nop                            20                       # number of nop insts executed
system.cpu.iew.exec_refs                       572210                       # number of memory reference insts executed
system.cpu.iew.exec_branches                   240656                       # Number of branches executed
system.cpu.iew.exec_stores                     223855                       # Number of stores executed
system.cpu.iew.exec_rate                     0.997803                       # Inst execution rate
system.cpu.iew.wb_sent                        2384143                       # cumulative count of insts sent to commit
system.cpu.iew.wb_count                       2367792                       # cumulative count of insts written-back
system.cpu.iew.wb_producers                   1563475                       # num instructions producing a value
system.cpu.iew.wb_consumers                   2514743                       # num instructions consuming a value
system.cpu.iew.wb_rate                       0.979022                       # insts written-back per cycle
system.cpu.iew.wb_fanout                     0.621724                       # average fanout of values written-back
system.cpu.commit.commitSquashedInsts         1163729                       # The number of squashed insts skipped by commit
system.cpu.commit.commitNonSpecStalls           11671                       # The number of times commit has been forced to stall to communicate backwards
system.cpu.commit.branchMispredicts             50323                       # The number of times a branch was mispredicted
system.cpu.commit.committed_per_cycle::samples      2090506                       # Number of insts commited each cycle
system.cpu.commit.committed_per_cycle::mean     0.843070                       # Number of insts commited each cycle
system.cpu.commit.committed_per_cycle::stdev     1.925237                       # Number of insts commited each cycle
system.cpu.commit.committed_per_cycle::underflows            0      0.00%      0.00% # Number of insts commited each cycle
system.cpu.commit.committed_per_cycle::0      1559233     74.59%     74.59% # Number of insts commited each cycle
system.cpu.commit.committed_per_cycle::1       187908      8.99%     83.58% # Number of insts commited each cycle
system.cpu.commit.committed_per_cycle::2        77785      3.72%     87.30% # Number of insts commited each cycle
system.cpu.commit.committed_per_cycle::3        79472      3.80%     91.10% # Number of insts commited each cycle
system.cpu.commit.committed_per_cycle::4        44343      2.12%     93.22% # Number of insts commited each cycle
system.cpu.commit.committed_per_cycle::5        27660      1.32%     94.54% # Number of insts commited each cycle
system.cpu.commit.committed_per_cycle::6        17928      0.86%     95.40% # Number of insts commited each cycle
system.cpu.commit.committed_per_cycle::7        12108      0.58%     95.98% # Number of insts commited each cycle
system.cpu.commit.committed_per_cycle::8        84069      4.02%    100.00% # Number of insts commited each cycle
system.cpu.commit.committed_per_cycle::overflows            0      0.00%    100.00% # Number of insts commited each cycle
system.cpu.commit.committed_per_cycle::min_value            0                       # Number of insts commited each cycle
system.cpu.commit.committed_per_cycle::max_value            8                       # Number of insts commited each cycle
system.cpu.commit.committed_per_cycle::total      2090506                       # Number of insts commited each cycle
system.cpu.commit.committedInsts               942032                       # Number of instructions committed
system.cpu.commit.committedOps                1762442                       # Number of ops (including micro ops) committed
system.cpu.commit.swp_count                         0                       # Number of s/w prefetches committed
system.cpu.commit.refs                         449632                       # Number of memory references committed
system.cpu.commit.loads                        258766                       # Number of loads committed
system.cpu.commit.membars                        1116                       # Number of memory barriers committed
system.cpu.commit.branches                     188561                       # Number of branches committed
system.cpu.commit.vec_insts                         0                       # Number of committed Vector instructions.
system.cpu.commit.fp_insts                       2404                       # Number of committed floating point instructions.
system.cpu.commit.int_insts                   1744705                       # Number of committed integer instructions.
system.cpu.commit.function_calls                19906                       # Number of function calls committed.
system.cpu.commit.op_class_0::No_OpClass        14768      0.84%      0.84% # Class of committed instruction
system.cpu.commit.op_class_0::IntAlu          1293290     73.38%     74.22% # Class of committed instruction
system.cpu.commit.op_class_0::IntMult            1278      0.07%     74.29% # Class of committed instruction
system.cpu.commit.op_class_0::IntDiv             1652      0.09%     74.38% # Class of committed instruction
system.cpu.commit.op_class_0::FloatAdd           1822      0.10%     74.49% # Class of committed instruction
system.cpu.commit.op_class_0::FloatCmp              0      0.00%     74.49% # Class of committed instruction
system.cpu.commit.op_class_0::FloatCvt              0      0.00%     74.49% # Class of committed instruction
system.cpu.commit.op_class_0::FloatMult             0      0.00%     74.49% # Class of committed instruction
system.cpu.commit.op_class_0::FloatMultAcc            0      0.00%     74.49% # Class of committed instruction
system.cpu.commit.op_class_0::FloatDiv              0      0.00%     74.49% # Class of committed instruction
system.cpu.commit.op_class_0::FloatMisc             0      0.00%     74.49% # Class of committed instruction
system.cpu.commit.op_class_0::FloatSqrt             0      0.00%     74.49% # Class of committed instruction
system.cpu.commit.op_class_0::SimdAdd               0      0.00%     74.49% # Class of committed instruction
system.cpu.commit.op_class_0::SimdAddAcc            0      0.00%     74.49% # Class of committed instruction
system.cpu.commit.op_class_0::SimdAlu               0      0.00%     74.49% # Class of committed instruction
system.cpu.commit.op_class_0::SimdCmp               0      0.00%     74.49% # Class of committed instruction
system.cpu.commit.op_class_0::SimdCvt               0      0.00%     74.49% # Class of committed instruction
system.cpu.commit.op_class_0::SimdMisc              0      0.00%     74.49% # Class of committed instruction
system.cpu.commit.op_class_0::SimdMult              0      0.00%     74.49% # Class of committed instruction
system.cpu.commit.op_class_0::SimdMultAcc            0      0.00%     74.49% # Class of committed instruction
system.cpu.commit.op_class_0::SimdShift             0      0.00%     74.49% # Class of committed instruction
system.cpu.commit.op_class_0::SimdShiftAcc            0      0.00%     74.49% # Class of committed instruction
system.cpu.commit.op_class_0::SimdSqrt              0      0.00%     74.49% # Class of committed instruction
system.cpu.commit.op_class_0::SimdFloatAdd            0      0.00%     74.49% # Class of committed instruction
system.cpu.commit.op_class_0::SimdFloatAlu            0      0.00%     74.49% # Class of committed instruction
system.cpu.commit.op_class_0::SimdFloatCmp            0      0.00%     74.49% # Class of committed instruction
system.cpu.commit.op_class_0::SimdFloatCvt            0      0.00%     74.49% # Class of committed instruction
system.cpu.commit.op_class_0::SimdFloatDiv            0      0.00%     74.49% # Class of committed instruction
system.cpu.commit.op_class_0::SimdFloatMisc            0      0.00%     74.49% # Class of committed instruction
system.cpu.commit.op_class_0::SimdFloatMult            0      0.00%     74.49% # Class of committed instruction
system.cpu.commit.op_class_0::SimdFloatMultAcc            0      0.00%     74.49% # Class of committed instruction
system.cpu.commit.op_class_0::SimdFloatSqrt            0      0.00%     74.49% # Class of committed instruction
system.cpu.commit.op_class_0::MemRead          258312     14.66%     89.14% # Class of committed instruction
system.cpu.commit.op_class_0::MemWrite         190866     10.83%     99.97% # Class of committed instruction
system.cpu.commit.op_class_0::FloatMemRead          454      0.03%    100.00% # Class of committed instruction
system.cpu.commit.op_class_0::FloatMemWrite            0      0.00%    100.00% # Class of committed instruction
system.cpu.commit.op_class_0::IprAccess             0      0.00%    100.00% # Class of committed instruction
system.cpu.commit.op_class_0::InstPrefetch            0      0.00%    100.00% # Class of committed instruction
system.cpu.commit.op_class_0::total           1762442                       # Class of committed instruction
system.cpu.commit.bw_lim_events                 84069                       # number cycles where commit BW limit reached
system.cpu.rob.rob_reads                      4927042                       # The number of ROB reads
system.cpu.rob.rob_writes                     6042556                       # The number of ROB writes
system.cpu.timesIdled                            7185                       # Number of times that the entire CPU went into an idle state and unscheduled itself
system.cpu.idleCycles                          140826                       # Total number of cycles that the CPU has spent unscheduled due to idling
system.cpu.committedInsts                      942032                       # Number of Instructions Simulated
system.cpu.committedOps                       1762442                       # Number of Ops (including micro ops) Simulated
system.cpu.cpi                               2.567353                       # CPI: Cycles Per Instruction
system.cpu.cpi_total                         2.567353                       # CPI: Total CPI of All Threads
system.cpu.ipc                               0.389506                       # IPC: Instructions Per Cycle
system.cpu.ipc_total                         0.389506                       # IPC: Total IPC of All Threads
system.cpu.int_regfile_reads                  3580805                       # number of integer regfile reads
system.cpu.int_regfile_writes                 1886420                       # number of integer regfile writes
system.cpu.fp_regfile_reads                      6694                       # number of floating regfile reads
system.cpu.fp_regfile_writes                     3529                       # number of floating regfile writes
system.cpu.cc_regfile_reads                   1099384                       # number of cc regfile reads
system.cpu.cc_regfile_writes                   705315                       # number of cc regfile writes
system.cpu.misc_regfile_reads                 1096015                       # number of misc regfile reads
system.cpu.misc_regfile_writes                  13111                       # number of misc regfile writes
system.cpu.dcache.tags.pwrStateResidencyTicks::UNDEFINED 4807213601500                       # Cumulative time (in ticks) in various power states
system.cpu.dcache.tags.replacements             21321                       # number of replacements
system.cpu.dcache.tags.tagsinuse                 1024                       # Cycle average of tags in use
system.cpu.dcache.tags.total_refs              459586                       # Total number of references to valid blocks.
system.cpu.dcache.tags.sampled_refs             21321                       # Sample count of references to valid blocks.
system.cpu.dcache.tags.avg_refs             21.555556                       # Average number of references to valid blocks.
system.cpu.dcache.tags.warmup_cycle                 0                       # Cycle when the warmup percentage was hit.
system.cpu.dcache.tags.occ_blocks::cpu.data         1024                       # Average occupied blocks per requestor
system.cpu.dcache.tags.occ_percent::cpu.data            1                       # Average percentage of cache occupancy
system.cpu.dcache.tags.occ_percent::total            1                       # Average percentage of cache occupancy
system.cpu.dcache.tags.occ_task_id_blocks::1024         1024                       # Occupied blocks per task id
system.cpu.dcache.tags.age_task_id_blocks_1024::0           54                       # Occupied blocks per task id
system.cpu.dcache.tags.age_task_id_blocks_1024::1          713                       # Occupied blocks per task id
system.cpu.dcache.tags.age_task_id_blocks_1024::2          257                       # Occupied blocks per task id
system.cpu.dcache.tags.occ_task_id_percent::1024            1                       # Percentage of cache occupancy per task id
system.cpu.dcache.tags.tag_accesses           1026993                       # Number of tag accesses
system.cpu.dcache.tags.data_accesses          1026993                       # Number of data accesses
system.cpu.dcache.pwrStateResidencyTicks::UNDEFINED 4807213601500                       # Cumulative time (in ticks) in various power states
system.cpu.dcache.ReadReq_hits::cpu.data       285478                       # number of ReadReq hits
system.cpu.dcache.ReadReq_hits::total          285478                       # number of ReadReq hits
system.cpu.dcache.WriteReq_hits::cpu.data       181742                       # number of WriteReq hits
system.cpu.dcache.WriteReq_hits::total         181742                       # number of WriteReq hits
system.cpu.dcache.SoftPFReq_hits::cpu.data          532                       # number of SoftPFReq hits
system.cpu.dcache.SoftPFReq_hits::total           532                       # number of SoftPFReq hits
system.cpu.dcache.demand_hits::cpu.data        467220                       # number of demand (read+write) hits
system.cpu.dcache.demand_hits::total           467220                       # number of demand (read+write) hits
system.cpu.dcache.overall_hits::cpu.data       467752                       # number of overall hits
system.cpu.dcache.overall_hits::total          467752                       # number of overall hits
system.cpu.dcache.ReadReq_misses::cpu.data        23004                       # number of ReadReq misses
system.cpu.dcache.ReadReq_misses::total         23004                       # number of ReadReq misses
system.cpu.dcache.WriteReq_misses::cpu.data         9068                       # number of WriteReq misses
system.cpu.dcache.WriteReq_misses::total         9068                       # number of WriteReq misses
system.cpu.dcache.SoftPFReq_misses::cpu.data         3012                       # number of SoftPFReq misses
system.cpu.dcache.SoftPFReq_misses::total         3012                       # number of SoftPFReq misses
system.cpu.dcache.demand_misses::cpu.data        32072                       # number of demand (read+write) misses
system.cpu.dcache.demand_misses::total          32072                       # number of demand (read+write) misses
system.cpu.dcache.overall_misses::cpu.data        35084                       # number of overall misses
system.cpu.dcache.overall_misses::total         35084                       # number of overall misses
system.cpu.dcache.ReadReq_miss_latency::cpu.data    289490000                       # number of ReadReq miss cycles
system.cpu.dcache.ReadReq_miss_latency::total    289490000                       # number of ReadReq miss cycles
system.cpu.dcache.WriteReq_miss_latency::cpu.data    161424485                       # number of WriteReq miss cycles
system.cpu.dcache.WriteReq_miss_latency::total    161424485                       # number of WriteReq miss cycles
system.cpu.dcache.demand_miss_latency::cpu.data    450914485                       # number of demand (read+write) miss cycles
system.cpu.dcache.demand_miss_latency::total    450914485                       # number of demand (read+write) miss cycles
system.cpu.dcache.overall_miss_latency::cpu.data    450914485                       # number of overall miss cycles
system.cpu.dcache.overall_miss_latency::total    450914485                       # number of overall miss cycles
[...]
system.l2cache.demand_mshr_misses::total         1514                       # number of demand (read+write) MSHR misses
system.l2cache.overall_mshr_misses::cpu.inst          490                       # number of overall MSHR misses
system.l2cache.overall_mshr_misses::cpu.data         1024                       # number of overall MSHR misses
system.l2cache.overall_mshr_misses::total         1514                       # number of overall MSHR misses
system.l2cache.ReadReq_mshr_uncacheable::cpu.data          347                       # number of ReadReq MSHR uncacheable
system.l2cache.ReadReq_mshr_uncacheable::total          347                       # number of ReadReq MSHR uncacheable
system.l2cache.WriteReq_mshr_uncacheable::cpu.data          129                       # number of WriteReq MSHR uncacheable
system.l2cache.WriteReq_mshr_uncacheable::total          129                       # number of WriteReq MSHR uncacheable
system.l2cache.overall_mshr_uncacheable_misses::cpu.data          476                       # number of overall MSHR uncacheable misses
system.l2cache.overall_mshr_uncacheable_misses::total          476                       # number of overall MSHR uncacheable misses
system.l2cache.UpgradeReq_mshr_miss_latency::cpu.data     12464998                       # number of UpgradeReq MSHR miss cycles
system.l2cache.UpgradeReq_mshr_miss_latency::total     12464998                       # number of UpgradeReq MSHR miss cycles
system.l2cache.ReadExReq_mshr_miss_latency::cpu.data     46164500                       # number of ReadExReq MSHR miss cycles
system.l2cache.ReadExReq_mshr_miss_latency::total     46164500                       # number of ReadExReq MSHR miss cycles
system.l2cache.ReadSharedReq_mshr_miss_latency::cpu.inst     39087000                       # number of ReadSharedReq MSHR miss cycles
system.l2cache.ReadSharedReq_mshr_miss_latency::cpu.data     26583001                       # number of ReadSharedReq MSHR miss cycles
system.l2cache.ReadSharedReq_mshr_miss_latency::total     65670001                       # number of ReadSharedReq MSHR miss cycles
system.l2cache.demand_mshr_miss_latency::cpu.inst     39087000                       # number of demand (read+write) MSHR miss cycles
system.l2cache.demand_mshr_miss_latency::cpu.data     72747501                       # number of demand (read+write) MSHR miss cycles
system.l2cache.demand_mshr_miss_latency::total    111834501                       # number of demand (read+write) MSHR miss cycles
system.l2cache.overall_mshr_miss_latency::cpu.inst     39087000                       # number of overall MSHR miss cycles
system.l2cache.overall_mshr_miss_latency::cpu.data     72747501                       # number of overall MSHR miss cycles
system.l2cache.overall_mshr_miss_latency::total    111834501                       # number of overall MSHR miss cycles
system.l2cache.ReadReq_mshr_uncacheable_latency::cpu.data     75819500                       # number of ReadReq MSHR uncacheable cycles
system.l2cache.ReadReq_mshr_uncacheable_latency::total     75819500                       # number of ReadReq MSHR uncacheable cycles
system.l2cache.overall_mshr_uncacheable_latency::cpu.data     75819500                       # number of overall MSHR uncacheable cycles
system.l2cache.overall_mshr_uncacheable_latency::total     75819500                       # number of overall MSHR uncacheable cycles
system.l2cache.UpgradeReq_mshr_miss_rate::cpu.data     0.961755                       # mshr miss rate for UpgradeReq accesses
system.l2cache.UpgradeReq_mshr_miss_rate::total     0.961755                       # mshr miss rate for UpgradeReq accesses
system.l2cache.ReadExReq_mshr_miss_rate::cpu.data     0.057543                       # mshr miss rate for ReadExReq accesses
system.l2cache.ReadExReq_mshr_miss_rate::total     0.057543                       # mshr miss rate for ReadExReq accesses
system.l2cache.ReadSharedReq_mshr_miss_rate::cpu.inst     0.015522                       # mshr miss rate for ReadSharedReq accesses
system.l2cache.ReadSharedReq_mshr_miss_rate::cpu.data     0.012146                       # mshr miss rate for ReadSharedReq accesses
system.l2cache.ReadSharedReq_mshr_miss_rate::total     0.014199                       # mshr miss rate for ReadSharedReq accesses
system.l2cache.demand_mshr_miss_rate::cpu.inst     0.015522                       # mshr miss rate for demand accesses
system.l2cache.demand_mshr_miss_rate::cpu.data     0.030261                       # mshr miss rate for demand accesses
system.l2cache.demand_mshr_miss_rate::total     0.023147                       # mshr miss rate for demand accesses
system.l2cache.overall_mshr_miss_rate::cpu.inst     0.015522                       # mshr miss rate for overall accesses
system.l2cache.overall_mshr_miss_rate::cpu.data     0.030261                       # mshr miss rate for overall accesses
system.l2cache.overall_mshr_miss_rate::total     0.023147                       # mshr miss rate for overall accesses
system.l2cache.UpgradeReq_avg_mshr_miss_latency::cpu.data 14578.945029                       # average UpgradeReq mshr miss latency
system.l2cache.UpgradeReq_avg_mshr_miss_latency::total 14578.945029                       # average UpgradeReq mshr miss latency
system.l2cache.ReadExReq_avg_mshr_miss_latency::cpu.data 59413.770914                       # average ReadExReq mshr miss latency
system.l2cache.ReadExReq_avg_mshr_miss_latency::total 59413.770914                       # average ReadExReq mshr miss latency
system.l2cache.ReadSharedReq_avg_mshr_miss_latency::cpu.inst 79769.387755                       # average ReadSharedReq mshr miss latency
system.l2cache.ReadSharedReq_avg_mshr_miss_latency::cpu.data 107623.485830                       # average ReadSharedReq mshr miss latency
system.l2cache.ReadSharedReq_avg_mshr_miss_latency::total 89104.478969                       # average ReadSharedReq mshr miss latency
system.l2cache.demand_avg_mshr_miss_latency::cpu.inst 79769.387755                       # average overall mshr miss latency
system.l2cache.demand_avg_mshr_miss_latency::cpu.data 71042.481445                       # average overall mshr miss latency
system.l2cache.demand_avg_mshr_miss_latency::total 73866.909511                       # average overall mshr miss latency
system.l2cache.overall_avg_mshr_miss_latency::cpu.inst 79769.387755                       # average overall mshr miss latency
system.l2cache.overall_avg_mshr_miss_latency::cpu.data 71042.481445                       # average overall mshr miss latency
system.l2cache.overall_avg_mshr_miss_latency::total 73866.909511                       # average overall mshr miss latency
system.l2cache.ReadReq_avg_mshr_uncacheable_latency::cpu.data       218500                       # average ReadReq mshr uncacheable latency
system.l2cache.ReadReq_avg_mshr_uncacheable_latency::total       218500                       # average ReadReq mshr uncacheable latency
system.l2cache.overall_avg_mshr_uncacheable_latency::cpu.data 159284.663866                       # average overall mshr uncacheable latency
system.l2cache.overall_avg_mshr_uncacheable_latency::total 159284.663866                       # average overall mshr uncacheable latency
system.membus.snoop_filter.tot_requests         35336                       # Total number of requests made to the snoop filter.
system.membus.snoop_filter.hit_single_requests        33943                       # Number of requests hitting in the snoop filter with a single holder of the requested data.
system.membus.snoop_filter.hit_multi_requests            0                       # Number of requests hitting in the snoop filter with multiple (>1) holders of the requested data.
system.membus.snoop_filter.tot_snoops               0                       # Total number of snoops made to the snoop filter.
system.membus.snoop_filter.hit_single_snoops            0                       # Number of snoops hitting in the snoop filter with a single holder of the requested data.
system.membus.snoop_filter.hit_multi_snoops            0                       # Number of snoops hitting in the snoop filter with multiple (>1) holders of the requested data.
system.membus.pwrStateResidencyTicks::UNDEFINED 4807820743500                       # Cumulative time (in ticks) in various power states
system.membus.trans_dist::ReadReq               34956                       # Transaction distribution
system.membus.trans_dist::ReadResp              35693                       # Transaction distribution
system.membus.trans_dist::WriteReq                129                       # Transaction distribution
system.membus.trans_dist::WriteResp               129                       # Transaction distribution
system.membus.trans_dist::WritebackDirty          656                       # Transaction distribution
system.membus.trans_dist::CleanEvict              596                       # Transaction distribution
system.membus.trans_dist::UpgradeReq              976                       # Transaction distribution
system.membus.trans_dist::ReadExReq               656                       # Transaction distribution
system.membus.trans_dist::ReadExResp              656                       # Transaction distribution
system.membus.trans_dist::ReadSharedReq           737                       # Transaction distribution
system.membus.trans_dist::MessageReq              117                       # Transaction distribution
system.membus.trans_dist::MessageResp             117                       # Transaction distribution
system.membus.pkt_count_system.apicbridge.master::system.cpu.interrupts.int_slave          234                       # Packet count per connected master and slave (bytes)
system.membus.pkt_count_system.apicbridge.master::total          234                       # Packet count per connected master and slave (bytes)
system.membus.pkt_count_system.l2cache.mem_side::system.bridge.slave          936                       # Packet count per connected master and slave (bytes)
system.membus.pkt_count_system.l2cache.mem_side::system.mem_cntrl.port         5014                       # Packet count per connected master and slave (bytes)
system.membus.pkt_count_system.l2cache.mem_side::system.cpu.interrupts.pio           16                       # Packet count per connected master and slave (bytes)
system.membus.pkt_count_system.l2cache.mem_side::total         5966                       # Packet count per connected master and slave (bytes)
system.membus.pkt_count_system.cpu.itb.walker.port::system.mem_cntrl.port         7860                       # Packet count per connected master and slave (bytes)
system.membus.pkt_count_system.cpu.itb.walker.port::total         7860                       # Packet count per connected master and slave (bytes)
system.membus.pkt_count_system.cpu.dtb.walker.port::system.mem_cntrl.port        29690                       # Packet count per connected master and slave (bytes)
system.membus.pkt_count_system.cpu.dtb.walker.port::total        29690                       # Packet count per connected master and slave (bytes)
system.membus.pkt_count::total                  43750                       # Packet count per connected master and slave (bytes)
system.membus.pkt_size_system.apicbridge.master::system.cpu.interrupts.int_slave          468                       # Cumulative packet size per connected master and slave (bytes)
system.membus.pkt_size_system.apicbridge.master::total          468                       # Cumulative packet size per connected master and slave (bytes)
system.membus.pkt_size_system.l2cache.mem_side::system.bridge.slave          468                       # Cumulative packet size per connected master and slave (bytes)
system.membus.pkt_size_system.l2cache.mem_side::system.mem_cntrl.port       131136                       # Cumulative packet size per connected master and slave (bytes)
system.membus.pkt_size_system.l2cache.mem_side::system.cpu.interrupts.pio           32                       # Cumulative packet size per connected master and slave (bytes)
system.membus.pkt_size_system.l2cache.mem_side::total       131636                       # Cumulative packet size per connected master and slave (bytes)
system.membus.pkt_size_system.cpu.itb.walker.port::system.mem_cntrl.port          408                       # Cumulative packet size per connected master and slave (bytes)
system.membus.pkt_size_system.cpu.itb.walker.port::total          408                       # Cumulative packet size per connected master and slave (bytes)
system.membus.pkt_size_system.cpu.dtb.walker.port::system.mem_cntrl.port        23120                       # Cumulative packet size per connected master and slave (bytes)
system.membus.pkt_size_system.cpu.dtb.walker.port::total        23120                       # Cumulative packet size per connected master and slave (bytes)
system.membus.pkt_size::total                  155632                       # Cumulative packet size per connected master and slave (bytes)
system.membus.snoops                            31668                       # Total snoops (count)
system.membus.snoopTraffic                     253344                       # Total snoop traffic (bytes)
system.membus.snoop_fanout::samples             37571                       # Request fanout histogram
system.membus.snoop_fanout::mean             0.844135                       # Request fanout histogram
system.membus.snoop_fanout::stdev            0.362732                       # Request fanout histogram
system.membus.snoop_fanout::underflows              0      0.00%      0.00% # Request fanout histogram
system.membus.snoop_fanout::0                    5856     15.59%     15.59% # Request fanout histogram
system.membus.snoop_fanout::1                   31715     84.41%    100.00% # Request fanout histogram
system.membus.snoop_fanout::2                       0      0.00%    100.00% # Request fanout histogram
system.membus.snoop_fanout::overflows               0      0.00%    100.00% # Request fanout histogram
system.membus.snoop_fanout::min_value               0                       # Request fanout histogram
system.membus.snoop_fanout::max_value               1                       # Request fanout histogram
system.membus.snoop_fanout::total               37571                       # Request fanout histogram
system.membus.reqLayer0.occupancy              294500                       # Layer occupancy (ticks)
system.membus.reqLayer0.utilization               0.0                       # Layer utilization (%)
system.membus.reqLayer1.occupancy            20428497                       # Layer occupancy (ticks)
system.membus.reqLayer1.utilization               1.1                       # Layer utilization (%)
system.membus.reqLayer2.occupancy                8000                       # Layer occupancy (ticks)
system.membus.reqLayer2.utilization               0.0                       # Layer utilization (%)
system.membus.reqLayer3.occupancy              117000                       # Layer occupancy (ticks)
system.membus.reqLayer3.utilization               0.0                       # Layer utilization (%)
system.membus.respLayer1.occupancy              58500                       # Layer occupancy (ticks)
system.membus.respLayer1.utilization              0.0                       # Layer utilization (%)
system.membus.respLayer3.occupancy            4151750                       # Layer occupancy (ticks)
system.membus.respLayer3.utilization              0.2                       # Layer utilization (%)
system.membus.respLayer4.occupancy            7977680                       # Layer occupancy (ticks)
system.membus.respLayer4.utilization              0.4                       # Layer utilization (%)
system.membus.respLayer5.occupancy           27444377                       # Layer occupancy (ticks)
system.membus.respLayer5.utilization              1.5                       # Layer utilization (%)
system.membus.badaddr_responder.pwrStateResidencyTicks::UNDEFINED 4807820743500                       # Cumulative time (in ticks) in various power states
system.pc.behind_pci.pwrStateResidencyTicks::UNDEFINED 4807820743500                       # Cumulative time (in ticks) in various power states
system.pc.com_1.pwrStateResidencyTicks::UNDEFINED 4807820743500                       # Cumulative time (in ticks) in various power states
system.pc.fake_com_2.pwrStateResidencyTicks::UNDEFINED 4807820743500                       # Cumulative time (in ticks) in various power states
system.pc.fake_com_3.pwrStateResidencyTicks::UNDEFINED 4807820743500                       # Cumulative time (in ticks) in various power states
system.pc.fake_com_4.pwrStateResidencyTicks::UNDEFINED 4807820743500                       # Cumulative time (in ticks) in various power states
system.pc.fake_floppy.pwrStateResidencyTicks::UNDEFINED 4807820743500                       # Cumulative time (in ticks) in various power states
system.pc.i_dont_exist1.pwrStateResidencyTicks::UNDEFINED 4807820743500                       # Cumulative time (in ticks) in various power states
system.pc.i_dont_exist2.pwrStateResidencyTicks::UNDEFINED 4807820743500                       # Cumulative time (in ticks) in various power states
system.pc.pci_host.pwrStateResidencyTicks::UNDEFINED 4807820743500                       # Cumulative time (in ticks) in various power states
system.pc.south_bridge.cmos.pwrStateResidencyTicks::UNDEFINED 4807820743500                       # Cumulative time (in ticks) in various power states
system.pc.south_bridge.dma1.pwrStateResidencyTicks::UNDEFINED 4807820743500                       # Cumulative time (in ticks) in various power states
system.pc.south_bridge.pic2.pwrStateResidencyTicks::UNDEFINED 4807820743500                       # Cumulative time (in ticks) in various power states
system.pc.south_bridge.pic1.pwrStateResidencyTicks::UNDEFINED 4807820743500                       # Cumulative time (in ticks) in various power states
system.pc.south_bridge.io_apic.pwrStateResidencyTicks::UNDEFINED 4807820743500                       # Cumulative time (in ticks) in various power states
system.pc.south_bridge.keyboard.pwrStateResidencyTicks::UNDEFINED 4807820743500                       # Cumulative time (in ticks) in various power states
system.pc.south_bridge.pit.pwrStateResidencyTicks::UNDEFINED 4807820743500                       # Cumulative time (in ticks) in various power states
system.pc.south_bridge.speaker.pwrStateResidencyTicks::UNDEFINED 4807820743500                       # Cumulative time (in ticks) in various power states
system.pc.south_bridge.ide.disks.dma_read_full_pages            0                       # Number of full page size DMA reads (not PRD).
system.pc.south_bridge.ide.disks.dma_read_bytes            0                       # Number of bytes transfered via DMA reads (not PRD).
system.pc.south_bridge.ide.disks.dma_read_txs            0                       # Number of DMA read transactions (not PRD).
system.pc.south_bridge.ide.disks.dma_write_full_pages            0                       # Number of full page size DMA writes.
system.pc.south_bridge.ide.disks.dma_write_bytes            0                       # Number of bytes transfered via DMA writes.
system.pc.south_bridge.ide.disks.dma_write_txs            0                       # Number of DMA write transactions.
system.pc.south_bridge.ide.pwrStateResidencyTicks::UNDEFINED 4807820743500                       # Cumulative time (in ticks) in various power states
system.cpu.kern.inst.arm                            0                       # number of arm instructions executed
system.cpu.kern.inst.quiesce                        0                       # number of quiesce instructions executed

---------- End Simulation Statistics   ----------
