
---------- Begin Simulation Statistics ----------
sim_seconds                                  0.001250                       # Number of seconds simulated
sim_ticks                                  1250085000                       # Number of ticks simulated
final_tick                               4803297393500                       # Number of ticks from beginning of simulation (restored from checkpoints and never reset)
sim_freq                                 1000000000000                       # Frequency of simulated ticks
host_inst_rate                               66901175                       # Simulator instruction rate (inst/s)
host_op_rate                                156411185                       # Simulator op (including micro ops) rate (op/s)
host_tick_rate                               57174224                       # Simulator tick rate (ticks/s)
host_mem_usage                                1546872                       # Number of bytes of host memory used
host_seconds                                    21.86                       # Real time elapsed on the host
sim_insts                                  1462756949                       # Number of instructions simulated
sim_ops                                    3419846986                       # Number of ops (including micro ops) simulated
system.clk_domain.voltage_domain.voltage            1                       # Voltage in Volts
system.clk_domain.clock                           500                       # Clock period in ticks
system.mem_cntrl.pwrStateResidencyTicks::UNDEFINED 4803297393500                       # Cumulative time (in ticks) in various power states
system.mem_cntrl.bytes_read::cpu.dtb.walker        17360                       # Number of bytes read from this memory
system.mem_cntrl.bytes_read::cpu.itb.walker          456                       # Number of bytes read from this memory
system.mem_cntrl.bytes_read::cpu.inst           32512                       # Number of bytes read from this memory
system.mem_cntrl.bytes_read::cpu.data           43200                       # Number of bytes read from this memory
system.mem_cntrl.bytes_read::total              93528                       # Number of bytes read from this memory
system.mem_cntrl.bytes_inst_read::cpu.inst        32512                       # Number of instructions bytes read from this memory
system.mem_cntrl.bytes_inst_read::total         32512                       # Number of instructions bytes read from this memory
system.mem_cntrl.bytes_written::writebacks        36736                       # Number of bytes written to this memory
system.mem_cntrl.bytes_written::total           36736                       # Number of bytes written to this memory
system.mem_cntrl.num_reads::cpu.dtb.walker         2170                       # Number of read requests responded to by this memory
system.mem_cntrl.num_reads::cpu.itb.walker           57                       # Number of read requests responded to by this memory
system.mem_cntrl.num_reads::cpu.inst              508                       # Number of read requests responded to by this memory
system.mem_cntrl.num_reads::cpu.data              675                       # Number of read requests responded to by this memory
system.mem_cntrl.num_reads::total                3410                       # Number of read requests responded to by this memory
system.mem_cntrl.num_writes::writebacks           574                       # Number of write requests responded to by this memory
system.mem_cntrl.num_writes::total                574                       # Number of write requests responded to by this memory
system.mem_cntrl.bw_read::cpu.dtb.walker     13887056                       # Total read bandwidth from this memory (bytes/s)
system.mem_cntrl.bw_read::cpu.itb.walker       364775                       # Total read bandwidth from this memory (bytes/s)
system.mem_cntrl.bw_read::cpu.inst           26007831                       # Total read bandwidth from this memory (bytes/s)
system.mem_cntrl.bw_read::cpu.data           34557650                       # Total read bandwidth from this memory (bytes/s)
system.mem_cntrl.bw_read::total              74817312                       # Total read bandwidth from this memory (bytes/s)
system.mem_cntrl.bw_inst_read::cpu.inst      26007831                       # Instruction read bandwidth from this memory (bytes/s)
system.mem_cntrl.bw_inst_read::total         26007831                       # Instruction read bandwidth from this memory (bytes/s)
system.mem_cntrl.bw_write::writebacks        29386802                       # Write bandwidth from this memory (bytes/s)
system.mem_cntrl.bw_write::total             29386802                       # Write bandwidth from this memory (bytes/s)
system.mem_cntrl.bw_total::writebacks        29386802                       # Total bandwidth to/from this memory (bytes/s)
system.mem_cntrl.bw_total::cpu.dtb.walker     13887056                       # Total bandwidth to/from this memory (bytes/s)
system.mem_cntrl.bw_total::cpu.itb.walker       364775                       # Total bandwidth to/from this memory (bytes/s)
system.mem_cntrl.bw_total::cpu.inst          26007831                       # Total bandwidth to/from this memory (bytes/s)
system.mem_cntrl.bw_total::cpu.data          34557650                       # Total bandwidth to/from this memory (bytes/s)
system.mem_cntrl.bw_total::total            104204114                       # Total bandwidth to/from this memory (bytes/s)
system.mem_cntrl.readReqs                        3410                       # Number of read requests accepted
system.mem_cntrl.writeReqs                        574                       # Number of write requests accepted
system.mem_cntrl.readBursts                      3410                       # Number of DRAM read bursts, including those serviced by the write queue
system.mem_cntrl.writeBursts                      574                       # Number of DRAM write bursts, including those merged in the write queue
system.mem_cntrl.bytesReadDRAM                 217984                       # Total number of bytes read from DRAM
system.mem_cntrl.bytesReadWrQ                     256                       # Total number of bytes read from write queue
system.mem_cntrl.bytesWritten                   36864                       # Total number of bytes written to DRAM
system.mem_cntrl.bytesReadSys                   93528                       # Total read bytes from the system interface side
system.mem_cntrl.bytesWrittenSys                36736                       # Total written bytes from the system interface side
system.mem_cntrl.servicedByWrQ                      4                       # Number of DRAM read bursts serviced by the write queue
system.mem_cntrl.mergedWrBursts                     0                       # Number of DRAM write bursts merged with an existing one
system.mem_cntrl.neitherReadNorWriteReqs            0                       # Number of requests that are neither read nor write
system.mem_cntrl.perBankRdBursts::0                50                       # Per bank write bursts
system.mem_cntrl.perBankRdBursts::1                49                       # Per bank write bursts
system.mem_cntrl.perBankRdBursts::2                20                       # Per bank write bursts
system.mem_cntrl.perBankRdBursts::3                19                       # Per bank write bursts
system.mem_cntrl.perBankRdBursts::4               284                       # Per bank write bursts
system.mem_cntrl.perBankRdBursts::5               349                       # Per bank write bursts
system.mem_cntrl.perBankRdBursts::6               878                       # Per bank write bursts
system.mem_cntrl.perBankRdBursts::7               161                       # Per bank write bursts
system.mem_cntrl.perBankRdBursts::8               792                       # Per bank write bursts
system.mem_cntrl.perBankRdBursts::9               165                       # Per bank write bursts
system.mem_cntrl.perBankRdBursts::10              144                       # Per bank write bursts
system.mem_cntrl.perBankRdBursts::11               51                       # Per bank write bursts
system.mem_cntrl.perBankRdBursts::12               63                       # Per bank write bursts
system.mem_cntrl.perBankRdBursts::13               63                       # Per bank write bursts
system.mem_cntrl.perBankRdBursts::14              195                       # Per bank write bursts
system.mem_cntrl.perBankRdBursts::15              123                       # Per bank write bursts
system.mem_cntrl.perBankWrBursts::0                27                       # Per bank write bursts
system.mem_cntrl.perBankWrBursts::1                23                       # Per bank write bursts
system.mem_cntrl.perBankWrBursts::2                10                       # Per bank write bursts
system.mem_cntrl.perBankWrBursts::3                13                       # Per bank write bursts
system.mem_cntrl.perBankWrBursts::4                 2                       # Per bank write bursts
system.mem_cntrl.perBankWrBursts::5                35                       # Per bank write bursts
system.mem_cntrl.perBankWrBursts::6                54                       # Per bank write bursts
system.mem_cntrl.perBankWrBursts::7                14                       # Per bank write bursts
system.mem_cntrl.perBankWrBursts::8                65                       # Per bank write bursts
system.mem_cntrl.perBankWrBursts::9                82                       # Per bank write bursts
system.mem_cntrl.perBankWrBursts::10               33                       # Per bank write bursts
system.mem_cntrl.perBankWrBursts::11               16                       # Per bank write bursts
system.mem_cntrl.perBankWrBursts::12               32                       # Per bank write bursts
system.mem_cntrl.perBankWrBursts::13               32                       # Per bank write bursts
system.mem_cntrl.perBankWrBursts::14               68                       # Per bank write bursts
system.mem_cntrl.perBankWrBursts::15               70                       # Per bank write bursts
system.mem_cntrl.numRdRetry                         0                       # Number of times read queue was full causing retry
system.mem_cntrl.numWrRetry                         0                       # Number of times write queue was full causing retry
system.mem_cntrl.totGap                    1250147000                       # Total gap between requests
system.mem_cntrl.readPktSize::0                     0                       # Read request sizes (log2)
system.mem_cntrl.readPktSize::1                     0                       # Read request sizes (log2)
system.mem_cntrl.readPktSize::2                     0                       # Read request sizes (log2)
system.mem_cntrl.readPktSize::3                  2227                       # Read request sizes (log2)
system.mem_cntrl.readPktSize::4                     0                       # Read request sizes (log2)
system.mem_cntrl.readPktSize::5                     0                       # Read request sizes (log2)
system.mem_cntrl.readPktSize::6                  1183                       # Read request sizes (log2)
system.mem_cntrl.writePktSize::0                    0                       # Write request sizes (log2)
system.mem_cntrl.writePktSize::1                    0                       # Write request sizes (log2)
system.mem_cntrl.writePktSize::2                    0                       # Write request sizes (log2)
system.mem_cntrl.writePktSize::3                    0                       # Write request sizes (log2)
system.mem_cntrl.writePktSize::4                    0                       # Write request sizes (log2)
system.mem_cntrl.writePktSize::5                    0                       # Write request sizes (log2)
system.mem_cntrl.writePktSize::6                  574                       # Write request sizes (log2)
system.mem_cntrl.rdQLenPdf::0                    3187                       # What read queue length does an incoming req see
system.mem_cntrl.rdQLenPdf::1                     197                       # What read queue length does an incoming req see
system.mem_cntrl.rdQLenPdf::2                      20                       # What read queue length does an incoming req see
system.mem_cntrl.rdQLenPdf::3                       2                       # What read queue length does an incoming req see
system.mem_cntrl.rdQLenPdf::4                       0                       # What read queue length does an incoming req see
system.mem_cntrl.rdQLenPdf::5                       0                       # What read queue length does an incoming req see
system.mem_cntrl.rdQLenPdf::6                       0                       # What read queue length does an incoming req see
system.mem_cntrl.rdQLenPdf::7                       0                       # What read queue length does an incoming req see
system.mem_cntrl.rdQLenPdf::8                       0                       # What read queue length does an incoming req see
system.mem_cntrl.rdQLenPdf::9                       0                       # What read queue length does an incoming req see
system.mem_cntrl.rdQLenPdf::10                      0                       # What read queue length does an incoming req see
system.mem_cntrl.rdQLenPdf::11                      0                       # What read queue length does an incoming req see
system.mem_cntrl.rdQLenPdf::12                      0                       # What read queue length does an incoming req see
system.mem_cntrl.rdQLenPdf::13                      0                       # What read queue length does an incoming req see
system.mem_cntrl.rdQLenPdf::14                      0                       # What read queue length does an incoming req see
system.mem_cntrl.rdQLenPdf::15                      0                       # What read queue length does an incoming req see
system.mem_cntrl.rdQLenPdf::16                      0                       # What read queue length does an incoming req see
system.mem_cntrl.rdQLenPdf::17                      0                       # What read queue length does an incoming req see
system.mem_cntrl.rdQLenPdf::18                      0                       # What read queue length does an incoming req see
system.mem_cntrl.rdQLenPdf::19                      0                       # What read queue length does an incoming req see
system.mem_cntrl.rdQLenPdf::20                      0                       # What read queue length does an incoming req see
system.mem_cntrl.rdQLenPdf::21                      0                       # What read queue length does an incoming req see
system.mem_cntrl.rdQLenPdf::22                      0                       # What read queue length does an incoming req see
system.mem_cntrl.rdQLenPdf::23                      0                       # What read queue length does an incoming req see
system.mem_cntrl.rdQLenPdf::24                      0                       # What read queue length does an incoming req see
system.mem_cntrl.rdQLenPdf::25                      0                       # What read queue length does an incoming req see
system.mem_cntrl.rdQLenPdf::26                      0                       # What read queue length does an incoming req see
system.mem_cntrl.rdQLenPdf::27                      0                       # What read queue length does an incoming req see
system.mem_cntrl.rdQLenPdf::28                      0                       # What read queue length does an incoming req see
system.mem_cntrl.rdQLenPdf::29                      0                       # What read queue length does an incoming req see
system.mem_cntrl.rdQLenPdf::30                      0                       # What read queue length does an incoming req see
system.mem_cntrl.rdQLenPdf::31                      0                       # What read queue length does an incoming req see
system.mem_cntrl.wrQLenPdf::0                       0                       # What write queue length does an incoming req see
system.mem_cntrl.wrQLenPdf::1                       0                       # What write queue length does an incoming req see
system.mem_cntrl.wrQLenPdf::2                       0                       # What write queue length does an incoming req see
system.mem_cntrl.wrQLenPdf::3                       0                       # What write queue length does an incoming req see
system.mem_cntrl.wrQLenPdf::4                       0                       # What write queue length does an incoming req see
system.mem_cntrl.wrQLenPdf::5                       0                       # What write queue length does an incoming req see
system.mem_cntrl.wrQLenPdf::6                       0                       # What write queue length does an incoming req see
system.mem_cntrl.wrQLenPdf::7                       0                       # What write queue length does an incoming req see
system.mem_cntrl.wrQLenPdf::8                       0                       # What write queue length does an incoming req see
system.mem_cntrl.wrQLenPdf::9                       0                       # What write queue length does an incoming req see
system.mem_cntrl.wrQLenPdf::10                      0                       # What write queue length does an incoming req see
system.mem_cntrl.wrQLenPdf::11                      0                       # What write queue length does an incoming req see
system.mem_cntrl.wrQLenPdf::12                      0                       # What write queue length does an incoming req see
system.mem_cntrl.wrQLenPdf::13                      0                       # What write queue length does an incoming req see
system.mem_cntrl.wrQLenPdf::14                      0                       # What write queue length does an incoming req see
system.mem_cntrl.wrQLenPdf::15                      8                       # What write queue length does an incoming req see
system.mem_cntrl.wrQLenPdf::16                      8                       # What write queue length does an incoming req see
system.mem_cntrl.wrQLenPdf::17                     32                       # What write queue length does an incoming req see
system.mem_cntrl.wrQLenPdf::18                     35                       # What write queue length does an incoming req see
system.mem_cntrl.wrQLenPdf::19                     35                       # What write queue length does an incoming req see
system.mem_cntrl.wrQLenPdf::20                     35                       # What write queue length does an incoming req see
system.mem_cntrl.wrQLenPdf::21                     35                       # What write queue length does an incoming req see
system.mem_cntrl.wrQLenPdf::22                     35                       # What write queue length does an incoming req see
system.mem_cntrl.wrQLenPdf::23                     35                       # What write queue length does an incoming req see
system.mem_cntrl.wrQLenPdf::24                     35                       # What write queue length does an incoming req see
system.mem_cntrl.wrQLenPdf::25                     35                       # What write queue length does an incoming req see
system.mem_cntrl.wrQLenPdf::26                     34                       # What write queue length does an incoming req see
system.mem_cntrl.wrQLenPdf::27                     34                       # What write queue length does an incoming req see
system.mem_cntrl.wrQLenPdf::28                     35                       # What write queue length does an incoming req see
system.mem_cntrl.wrQLenPdf::29                     37                       # What write queue length does an incoming req see
system.mem_cntrl.wrQLenPdf::30                     36                       # What write queue length does an incoming req see
system.mem_cntrl.wrQLenPdf::31                     35                       # What write queue length does an incoming req see
system.mem_cntrl.wrQLenPdf::32                     35                       # What write queue length does an incoming req see
system.mem_cntrl.wrQLenPdf::33                      0                       # What write queue length does an incoming req see
system.mem_cntrl.wrQLenPdf::34                      0                       # What write queue length does an incoming req see
system.mem_cntrl.wrQLenPdf::35                      0                       # What write queue length does an incoming req see
system.mem_cntrl.wrQLenPdf::36                      0                       # What write queue length does an incoming req see
system.mem_cntrl.wrQLenPdf::37                      0                       # What write queue length does an incoming req see
system.mem_cntrl.wrQLenPdf::38                      0                       # What write queue length does an incoming req see
system.mem_cntrl.wrQLenPdf::39                      0                       # What write queue length does an incoming req see
system.mem_cntrl.wrQLenPdf::40                      0                       # What write queue length does an incoming req see
system.mem_cntrl.wrQLenPdf::41                      0                       # What write queue length does an incoming req see
system.mem_cntrl.wrQLenPdf::42                      0                       # What write queue length does an incoming req see
system.mem_cntrl.wrQLenPdf::43                      0                       # What write queue length does an incoming req see
system.mem_cntrl.wrQLenPdf::44                      0                       # What write queue length does an incoming req see
system.mem_cntrl.wrQLenPdf::45                      0                       # What write queue length does an incoming req see
system.mem_cntrl.wrQLenPdf::46                      0                       # What write queue length does an incoming req see
system.mem_cntrl.wrQLenPdf::47                      0                       # What write queue length does an incoming req see
system.mem_cntrl.wrQLenPdf::48                      0                       # What write queue length does an incoming req see
system.mem_cntrl.wrQLenPdf::49                      0                       # What write queue length does an incoming req see
system.mem_cntrl.wrQLenPdf::50                      0                       # What write queue length does an incoming req see
system.mem_cntrl.wrQLenPdf::51                      0                       # What write queue length does an incoming req see
system.mem_cntrl.wrQLenPdf::52                      0                       # What write queue length does an incoming req see
system.mem_cntrl.wrQLenPdf::53                      0                       # What write queue length does an incoming req see
system.mem_cntrl.wrQLenPdf::54                      0                       # What write queue length does an incoming req see
system.mem_cntrl.wrQLenPdf::55                      0                       # What write queue length does an incoming req see
system.mem_cntrl.wrQLenPdf::56                      0                       # What write queue length does an incoming req see
system.mem_cntrl.wrQLenPdf::57                      0                       # What write queue length does an incoming req see
system.mem_cntrl.wrQLenPdf::58                      0                       # What write queue length does an incoming req see
system.mem_cntrl.wrQLenPdf::59                      0                       # What write queue length does an incoming req see
system.mem_cntrl.wrQLenPdf::60                      0                       # What write queue length does an incoming req see
system.mem_cntrl.wrQLenPdf::61                      0                       # What write queue length does an incoming req see
system.mem_cntrl.wrQLenPdf::62                      0                       # What write queue length does an incoming req see
system.mem_cntrl.wrQLenPdf::63                      0                       # What write queue length does an incoming req see
system.mem_cntrl.bytesPerActivate::samples         1183                       # Bytes accessed per row activation
system.mem_cntrl.bytesPerActivate::mean    215.371090                       # Bytes accessed per row activation
system.mem_cntrl.bytesPerActivate::gmean   133.869993                       # Bytes accessed per row activation
system.mem_cntrl.bytesPerActivate::stdev   259.056175                       # Bytes accessed per row activation
system.mem_cntrl.bytesPerActivate::0-127          575     48.61%     48.61% # Bytes accessed per row activation
system.mem_cntrl.bytesPerActivate::128-255          306     25.87%     74.47% # Bytes accessed per row activation
system.mem_cntrl.bytesPerActivate::256-383          108      9.13%     83.60% # Bytes accessed per row activation
system.mem_cntrl.bytesPerActivate::384-511           53      4.48%     88.08% # Bytes accessed per row activation
system.mem_cntrl.bytesPerActivate::512-639           26      2.20%     90.28% # Bytes accessed per row activation
system.mem_cntrl.bytesPerActivate::640-767           17      1.44%     91.72% # Bytes accessed per row activation
system.mem_cntrl.bytesPerActivate::768-895           19      1.61%     93.32% # Bytes accessed per row activation
system.mem_cntrl.bytesPerActivate::896-1023           15      1.27%     94.59% # Bytes accessed per row activation
system.mem_cntrl.bytesPerActivate::1024-1151           64      5.41%    100.00% # Bytes accessed per row activation
system.mem_cntrl.bytesPerActivate::total         1183                       # Bytes accessed per row activation
system.mem_cntrl.rdPerTurnAround::samples           35                       # Reads before turning the bus around for writes
system.mem_cntrl.rdPerTurnAround::mean     100.628571                       # Reads before turning the bus around for writes
system.mem_cntrl.rdPerTurnAround::gmean     66.481977                       # Reads before turning the bus around for writes
system.mem_cntrl.rdPerTurnAround::stdev    104.147544                       # Reads before turning the bus around for writes
system.mem_cntrl.rdPerTurnAround::16-31             7     20.00%     20.00% # Reads before turning the bus around for writes
system.mem_cntrl.rdPerTurnAround::32-47             8     22.86%     42.86% # Reads before turning the bus around for writes
system.mem_cntrl.rdPerTurnAround::48-63             6     17.14%     60.00% # Reads before turning the bus around for writes
system.mem_cntrl.rdPerTurnAround::64-79             3      8.57%     68.57% # Reads before turning the bus around for writes
system.mem_cntrl.rdPerTurnAround::96-111            1      2.86%     71.43% # Reads before turning the bus around for writes
system.mem_cntrl.rdPerTurnAround::112-127            1      2.86%     74.29% # Reads before turning the bus around for writes
system.mem_cntrl.rdPerTurnAround::160-175            1      2.86%     77.14% # Reads before turning the bus around for writes
system.mem_cntrl.rdPerTurnAround::176-191            1      2.86%     80.00% # Reads before turning the bus around for writes
system.mem_cntrl.rdPerTurnAround::192-207            3      8.57%     88.57% # Reads before turning the bus around for writes
system.mem_cntrl.rdPerTurnAround::224-239            1      2.86%     91.43% # Reads before turning the bus around for writes
system.mem_cntrl.rdPerTurnAround::304-319            1      2.86%     94.29% # Reads before turning the bus around for writes
system.mem_cntrl.rdPerTurnAround::368-383            1      2.86%     97.14% # Reads before turning the bus around for writes
system.mem_cntrl.rdPerTurnAround::400-415            1      2.86%    100.00% # Reads before turning the bus around for writes
system.mem_cntrl.rdPerTurnAround::total            35                       # Reads before turning the bus around for writes
system.mem_cntrl.wrPerTurnAround::samples           35                       # Writes before turning the bus around for reads
system.mem_cntrl.wrPerTurnAround::mean      16.457143                       # Writes before turning the bus around for reads
system.mem_cntrl.wrPerTurnAround::gmean     16.436600                       # Writes before turning the bus around for reads
system.mem_cntrl.wrPerTurnAround::stdev      0.852086                       # Writes before turning the bus around for reads
system.mem_cntrl.wrPerTurnAround::16               27     77.14%     77.14% # Writes before turning the bus around for reads
system.mem_cntrl.wrPerTurnAround::18                8     22.86%    100.00% # Writes before turning the bus around for reads
system.mem_cntrl.wrPerTurnAround::total            35                       # Writes before turning the bus around for reads
system.mem_cntrl.totQLat                     67124750                       # Total ticks spent queuing
system.mem_cntrl.totMemAccLat               130987250                       # Total ticks spent from burst creation until serviced by the DRAM
system.mem_cntrl.totBusLat                   17030000                       # Total ticks spent in databus transfers
system.mem_cntrl.avgQLat                     19707.80                       # Average queueing delay per DRAM burst
system.mem_cntrl.avgBusLat                    5000.00                       # Average bus latency per DRAM burst
system.mem_cntrl.avgMemAccLat                38457.80                       # Average memory access latency per DRAM burst
system.mem_cntrl.avgRdBW                       174.38                       # Average DRAM read bandwidth in MiByte/s
system.mem_cntrl.avgWrBW                        29.49                       # Average achieved write bandwidth in MiByte/s
system.mem_cntrl.avgRdBWSys                     74.82                       # Average system read bandwidth in MiByte/s
system.mem_cntrl.avgWrBWSys                     29.39                       # Average system write bandwidth in MiByte/s
system.mem_cntrl.peakBW                      12800.00                       # Theoretical peak bandwidth in MiByte/s
system.mem_cntrl.busUtil                         1.59                       # Data bus utilization in percentage
system.mem_cntrl.busUtilRead                     1.36                       # Data bus utilization in percentage for reads
system.mem_cntrl.busUtilWrite                    0.23                       # Data bus utilization in percentage for writes
system.mem_cntrl.avgRdQLen                       1.13                       # Average read queue length when enqueuing
system.mem_cntrl.avgWrQLen                      23.67                       # Average write queue length when enqueuing
system.mem_cntrl.readRowHits                     2524                       # Number of row buffer hits during reads
system.mem_cntrl.writeRowHits                     275                       # Number of row buffer hits during writes
system.mem_cntrl.readRowHitRate                 74.10                       # Row buffer hit rate for reads
system.mem_cntrl.writeRowHitRate                47.91                       # Row buffer hit rate for writes
system.mem_cntrl.avgGap                     313791.92                       # Average gap between requests
system.mem_cntrl.pageHitRate                    70.33                       # Row buffer hit rate, read and write combined
system.mem_cntrl_0.actEnergy                  4269720                       # Energy for activate commands per rank (pJ)
system.mem_cntrl_0.preEnergy                  2258025                       # Energy for precharge commands per rank (pJ)
system.mem_cntrl_0.readEnergy                12937680                       # Energy for read commands per rank (pJ)
system.mem_cntrl_0.writeEnergy                 929160                       # Energy for write commands per rank (pJ)
system.mem_cntrl_0.refreshEnergy         92196000.000000                       # Energy for refresh commands per rank (pJ)
system.mem_cntrl_0.actBackEnergy             56983470                       # Energy for active background per rank (pJ)
system.mem_cntrl_0.preBackEnergy              2983680                       # Energy for precharge background per rank (pJ)
system.mem_cntrl_0.actPowerDownEnergy       300712620                       # Energy for active power-down per rank (pJ)
system.mem_cntrl_0.prePowerDownEnergy       112621440                       # Energy for precharge power-down per rank (pJ)
system.mem_cntrl_0.selfRefreshEnergy         46676880                       # Energy for self refresh per rank (pJ)
system.mem_cntrl_0.totalEnergy              632660025                       # Total energy per rank (pJ)
system.mem_cntrl_0.averagePower            506.093606                       # Core power per rank (mW)
system.mem_cntrl_0.totalIdleTime           1117031750                       # Total Idle time Per DRAM Rank
system.mem_cntrl_0.memoryStateTime::IDLE      3936000                       # Time in different power states
system.mem_cntrl_0.memoryStateTime::REF      39084000                       # Time in different power states
system.mem_cntrl_0.memoryStateTime::SREF    166670500                       # Time in different power states
system.mem_cntrl_0.memoryStateTime::PRE_PDN    293261000                       # Time in different power states
system.mem_cntrl_0.memoryStateTime::ACT      89876750                       # Time in different power states
system.mem_cntrl_0.memoryStateTime::ACT_PDN    659419750                       # Time in different power states
system.mem_cntrl_1.actEnergy                  4205460                       # Energy for activate commands per rank (pJ)
system.mem_cntrl_1.preEnergy                  2231460                       # Energy for precharge commands per rank (pJ)
system.mem_cntrl_1.readEnergy                11424000                       # Energy for read commands per rank (pJ)
system.mem_cntrl_1.writeEnergy                2077560                       # Energy for write commands per rank (pJ)
system.mem_cntrl_1.refreshEnergy         91581360.000000                       # Energy for refresh commands per rank (pJ)
system.mem_cntrl_1.actBackEnergy             50144040                       # Energy for active background per rank (pJ)
system.mem_cntrl_1.preBackEnergy              3538560                       # Energy for precharge background per rank (pJ)
system.mem_cntrl_1.actPowerDownEnergy       293186910                       # Energy for active power-down per rank (pJ)
system.mem_cntrl_1.prePowerDownEnergy       111524640                       # Energy for precharge power-down per rank (pJ)
system.mem_cntrl_1.selfRefreshEnergy         56861700                       # Energy for self refresh per rank (pJ)
system.mem_cntrl_1.totalEnergy              626775690                       # Total energy per rank (pJ)
system.mem_cntrl_1.averagePower            501.386458                       # Core power per rank (mW)
system.mem_cntrl_1.totalIdleTime           1131034750                       # Total Idle time Per DRAM Rank
system.mem_cntrl_1.memoryStateTime::IDLE      4746000                       # Time in different power states
system.mem_cntrl_1.memoryStateTime::REF      38830000                       # Time in different power states
system.mem_cntrl_1.memoryStateTime::SREF    202406750                       # Time in different power states
system.mem_cntrl_1.memoryStateTime::PRE_PDN    289778000                       # Time in different power states
system.mem_cntrl_1.memoryStateTime::ACT      75476500                       # Time in different power states
system.mem_cntrl_1.memoryStateTime::ACT_PDN    639109000                       # Time in different power states
system.pwrStateResidencyTicks::UNDEFINED 4803297393500                       # Cumulative time (in ticks) in various power states
system.apicbridge.pwrStateResidencyTicks::UNDEFINED 4803297393500                       # Cumulative time (in ticks) in various power states
system.bridge.pwrStateResidencyTicks::UNDEFINED 4803297393500                       # Cumulative time (in ticks) in various power states
system.cpu.branchPred.lookups                  447561                       # Number of BP lookups
system.cpu.branchPred.condPredicted            447561                       # Number of conditional branches predicted
system.cpu.branchPred.condIncorrect             52568                       # Number of conditional branches incorrect
system.cpu.branchPred.BTBLookups               375469                       # Number of BTB lookups
system.cpu.branchPred.BTBHits                       0                       # Number of BTB hits
system.cpu.branchPred.BTBCorrect                    0                       # Number of correct BTB predictions (this stat may not work properly.
system.cpu.branchPred.BTBHitPct              0.000000                       # BTB Hit Percentage
system.cpu.branchPred.usedRAS                   44549                       # Number of times the RAS was used to get a target.
system.cpu.branchPred.RASInCorrect              10787                       # Number of incorrect RAS predictions.
system.cpu.branchPred.correctpredictionPercent    88.254562                       # Correct prediction percentage
system.cpu.branchPred.indirectLookups          375469                       # Number of indirect predictor lookups.
system.cpu.branchPred.indirectHits             101615                       # Number of indirect target hits.
system.cpu.branchPred.indirectMisses           273854                       # Number of indirect misses.
system.cpu.branchPredindirectMispredicted        37075                       # Number of mispredicted indirect branches.
system.cpu.dtb.walker.pwrStateResidencyTicks::UNDEFINED 4803297393500                       # Cumulative time (in ticks) in various power states
system.cpu.dtb.rdAccesses                      358924                       # TLB accesses on read requests
system.cpu.dtb.wrAccesses                      226491                       # TLB accesses on write requests
system.cpu.dtb.rdMisses                          8900                       # TLB misses on read requests
system.cpu.dtb.wrMisses                          2045                       # TLB misses on write requests
system.cpu.apic_clk_domain.clock                 8000                       # Clock period in ticks
system.cpu.interrupts.pwrStateResidencyTicks::UNDEFINED 4803297393500                       # Cumulative time (in ticks) in various power states
system.cpu.itb.walker.pwrStateResidencyTicks::UNDEFINED 4803297393500                       # Cumulative time (in ticks) in various power states
system.cpu.itb.rdAccesses                           0                       # TLB accesses on read requests
system.cpu.itb.wrAccesses                      282137                       # TLB accesses on write requests
system.cpu.itb.rdMisses                             0                       # TLB misses on read requests
system.cpu.itb.wrMisses                          1430                       # TLB misses on write requests
system.cpu.pwrStateResidencyTicks::ON      2516333500                       # Cumulative time (in ticks) in various power states
system.cpu.numCycles                          2500170                       # number of cpu cycles simulated
system.cpu.numWorkItemsStarted                      0                       # number of work items this cpu started
system.cpu.numWorkItemsCompleted                    0                       # number of work items this cpu completed
system.cpu.fetch.icacheStallCycles             579211                       # Number of cycles fetch is stalled on an Icache miss
system.cpu.fetch.Insts                        2034976                       # Number of instructions fetch has processed
system.cpu.fetch.Branches                      447561                       # Number of branches that fetch encountered
system.cpu.fetch.predictedBranches             146164                       # Number of branches that fetch has predicted taken
system.cpu.fetch.Cycles                       1622303                       # Number of cycles fetch has run and was not squashing or blocked
system.cpu.fetch.SquashCycles                  114454                       # Number of cycles fetch has spent squashing
system.cpu.fetch.TlbCycles                      49130                       # Number of cycles fetch has spent waiting for tlb
system.cpu.fetch.MiscStallCycles                 1782                       # Number of cycles fetch has spent waiting on interrupts, or bad addresses, or out of MSHRs
system.cpu.fetch.PendingTrapStallCycles         40100                       # Number of stall cycles due to pending traps
system.cpu.fetch.PendingQuiesceStallCycles           26                       # Number of stall cycles due to pending quiesce instructions
system.cpu.fetch.CacheLines                    276039                       # Number of cache lines fetched
system.cpu.fetch.IcacheSquashes                 20696                       # Number of outstanding Icache misses that were squashed
system.cpu.fetch.ItlbSquashes                     723                       # Number of outstanding ITLB misses that were squashed
system.cpu.fetch.rateDist::samples            2349779                       # Number of instructions fetched each cycle (Total)
system.cpu.fetch.rateDist::mean              1.706185                       # Number of instructions fetched each cycle (Total)
system.cpu.fetch.rateDist::stdev             3.074450                       # Number of instructions fetched each cycle (Total)
system.cpu.fetch.rateDist::underflows               0      0.00%      0.00% # Number of instructions fetched each cycle (Total)
system.cpu.fetch.rateDist::0                  1709017     72.73%     72.73% # Number of instructions fetched each cycle (Total)
system.cpu.fetch.rateDist::1                    57702      2.46%     75.19% # Number of instructions fetched each cycle (Total)
system.cpu.fetch.rateDist::2                    30727      1.31%     76.49% # Number of instructions fetched each cycle (Total)
system.cpu.fetch.rateDist::3                    37295      1.59%     78.08% # Number of instructions fetched each cycle (Total)
system.cpu.fetch.rateDist::4                    36825      1.57%     79.65% # Number of instructions fetched each cycle (Total)
system.cpu.fetch.rateDist::5                    32985      1.40%     81.05% # Number of instructions fetched each cycle (Total)
system.cpu.fetch.rateDist::6                    32673      1.39%     82.44% # Number of instructions fetched each cycle (Total)
system.cpu.fetch.rateDist::7                    30587      1.30%     83.74% # Number of instructions fetched each cycle (Total)
system.cpu.fetch.rateDist::8                   381968     16.26%    100.00% # Number of instructions fetched each cycle (Total)
system.cpu.fetch.rateDist::overflows                0      0.00%    100.00% # Number of instructions fetched each cycle (Total)
system.cpu.fetch.rateDist::min_value                0                       # Number of instructions fetched each cycle (Total)
system.cpu.fetch.rateDist::max_value                8                       # Number of instructions fetched each cycle (Total)
system.cpu.fetch.rateDist::total              2349779                       # Number of instructions fetched each cycle (Total)
system.cpu.fetch.branchRate                  0.179012                       # Number of branch fetches per cycle
system.cpu.fetch.rate                        0.813935                       # Number of inst fetches per cycle
system.cpu.decode.IdleCycles                   544926                       # Number of cycles decode is idle
system.cpu.decode.BlockedCycles               1221070                       # Number of cycles decode is blocked
system.cpu.decode.RunCycles                    459087                       # Number of cycles decode is running
system.cpu.decode.UnblockCycles                 67469                       # Number of cycles decode is unblocking
system.cpu.decode.SquashCycles                  57227                       # Number of cycles decode is squashing
system.cpu.decode.DecodedInsts                3591083                       # Number of instructions handled by decode
system.cpu.rename.SquashCycles                  57227                       # Number of cycles rename is squashing
system.cpu.rename.IdleCycles                   588351                       # Number of cycles rename is idle
system.cpu.rename.BlockCycles                  567913                       # Number of cycles rename is blocking
system.cpu.rename.serializeStallCycles         356919                       # count of cycles rename stalled for serializing inst
system.cpu.rename.RunCycles                    478812                       # Number of cycles rename is running
system.cpu.rename.UnblockCycles                300557                       # Number of cycles rename is unblocking
system.cpu.rename.RenamedInsts                3361407                       # Number of instructions processed by rename
system.cpu.rename.ROBFullEvents                  4278                       # Number of times rename has blocked due to ROB full
system.cpu.rename.IQFullEvents                  26216                       # Number of times rename has blocked due to IQ full
system.cpu.rename.LQFullEvents                  18801                       # Number of times rename has blocked due to LQ full
system.cpu.rename.SQFullEvents                 235864                       # Number of times rename has blocked due to SQ full
system.cpu.rename.RenamedOperands             3694284                       # Number of destination operands rename has renamed
system.cpu.rename.RenameLookups               8425120                       # Number of register rename lookups that rename has made
system.cpu.rename.int_rename_lookups          5188594                       # Number of integer rename lookups
system.cpu.rename.fp_rename_lookups             11786                       # Number of floating rename lookups
system.cpu.rename.CommittedMaps               1967230                       # Number of HB maps that are committed
system.cpu.rename.UndoneMaps                  1727076                       # Number of HB maps that are undone due to squashing
system.cpu.rename.serializingInsts              14313                       # count of serializing insts renamed
system.cpu.rename.tempSerializingInsts          14350                       # count of temporary serializing insts renamed
system.cpu.rename.skidInsts                    282632                       # count of insts added to the skid buffer
system.cpu.memDep0.insertedLoads               439319                       # Number of loads inserted to the mem dependence unit.
system.cpu.memDep0.insertedStores              277679                       # Number of stores inserted to the mem dependence unit.
system.cpu.memDep0.conflictingLoads             34262                       # Number of conflicting loads.
system.cpu.memDep0.conflictingStores            32515                       # Number of conflicting stores.
system.cpu.iq.iqInstsAdded                    2975744                       # Number of instructions added to the IQ (excludes non-spec)
system.cpu.iq.iqNonSpecInstsAdded               16847                       # Number of non-speculative instructions added to the IQ
system.cpu.iq.iqInstsIssued                   2565988                       # Number of instructions issued
system.cpu.iq.iqSquashedInstsIssued             20492                       # Number of squashed instructions issued
system.cpu.iq.iqSquashedInstsExamined         1230433                       # Number of squashed instructions iterated over during squash; mainly for profiling
system.cpu.iq.iqSquashedOperandsExamined      1800361                       # Number of squashed operands that are examined and possibly removed from graph
system.cpu.iq.iqSquashedNonSpecRemoved           5176                       # Number of squashed non-spec instructions that were removed
system.cpu.iq.issued_per_cycle::samples       2349779                       # Number of insts issued each cycle
system.cpu.iq.issued_per_cycle::mean         1.092012                       # Number of insts issued each cycle
system.cpu.iq.issued_per_cycle::stdev        1.977925                       # Number of insts issued each cycle
system.cpu.iq.issued_per_cycle::underflows            0      0.00%      0.00% # Number of insts issued each cycle
system.cpu.iq.issued_per_cycle::0             1591407     67.73%     67.73% # Number of insts issued each cycle
system.cpu.iq.issued_per_cycle::1              195652      8.33%     76.05% # Number of insts issued each cycle
system.cpu.iq.issued_per_cycle::2              128946      5.49%     81.54% # Number of insts issued each cycle
system.cpu.iq.issued_per_cycle::3              103936      4.42%     85.96% # Number of insts issued each cycle
system.cpu.iq.issued_per_cycle::4               94860      4.04%     90.00% # Number of insts issued each cycle
system.cpu.iq.issued_per_cycle::5               86105      3.66%     93.66% # Number of insts issued each cycle
system.cpu.iq.issued_per_cycle::6               77221      3.29%     96.95% # Number of insts issued each cycle
system.cpu.iq.issued_per_cycle::7               45871      1.95%     98.90% # Number of insts issued each cycle
system.cpu.iq.issued_per_cycle::8               25781      1.10%    100.00% # Number of insts issued each cycle
system.cpu.iq.issued_per_cycle::overflows            0      0.00%    100.00% # Number of insts issued each cycle
system.cpu.iq.issued_per_cycle::min_value            0                       # Number of insts issued each cycle
system.cpu.iq.issued_per_cycle::max_value            8                       # Number of insts issued each cycle
system.cpu.iq.issued_per_cycle::total         2349779                       # Number of insts issued each cycle
system.cpu.iq.fu_full::No_OpClass                   0      0.00%      0.00% # attempts to use FU when none available
system.cpu.iq.fu_full::IntAlu                   25685     67.10%     67.10% # attempts to use FU when none available
system.cpu.iq.fu_full::IntMult                      0      0.00%     67.10% # attempts to use FU when none available
system.cpu.iq.fu_full::IntDiv                       0      0.00%     67.10% # attempts to use FU when none available
system.cpu.iq.fu_full::FloatAdd                    43      0.11%     67.21% # attempts to use FU when none available
system.cpu.iq.fu_full::FloatCmp                     0      0.00%     67.21% # attempts to use FU when none available
system.cpu.iq.fu_full::FloatCvt                     0      0.00%     67.21% # attempts to use FU when none available
system.cpu.iq.fu_full::FloatMult                    0      0.00%     67.21% # attempts to use FU when none available
system.cpu.iq.fu_full::FloatMultAcc                 0      0.00%     67.21% # attempts to use FU when none available
system.cpu.iq.fu_full::FloatDiv                     0      0.00%     67.21% # attempts to use FU when none available
system.cpu.iq.fu_full::FloatMisc                    0      0.00%     67.21% # attempts to use FU when none available
system.cpu.iq.fu_full::FloatSqrt                    0      0.00%     67.21% # attempts to use FU when none available
system.cpu.iq.fu_full::SimdAdd                      0      0.00%     67.21% # attempts to use FU when none available
system.cpu.iq.fu_full::SimdAddAcc                   0      0.00%     67.21% # attempts to use FU when none available
system.cpu.iq.fu_full::SimdAlu                      0      0.00%     67.21% # attempts to use FU when none available
system.cpu.iq.fu_full::SimdCmp                      0      0.00%     67.21% # attempts to use FU when none available
system.cpu.iq.fu_full::SimdCvt                      0      0.00%     67.21% # attempts to use FU when none available
system.cpu.iq.fu_full::SimdMisc                     0      0.00%     67.21% # attempts to use FU when none available
system.cpu.iq.fu_full::SimdMult                     0      0.00%     67.21% # attempts to use FU when none available
system.cpu.iq.fu_full::SimdMultAcc                  0      0.00%     67.21% # attempts to use FU when none available
system.cpu.iq.fu_full::SimdShift                    0      0.00%     67.21% # attempts to use FU when none available
system.cpu.iq.fu_full::SimdShiftAcc                 0      0.00%     67.21% # attempts to use FU when none available
system.cpu.iq.fu_full::SimdSqrt                     0      0.00%     67.21% # attempts to use FU when none available
system.cpu.iq.fu_full::SimdFloatAdd                 0      0.00%     67.21% # attempts to use FU when none available
system.cpu.iq.fu_full::SimdFloatAlu                 0      0.00%     67.21% # attempts to use FU when none available
system.cpu.iq.fu_full::SimdFloatCmp                 0      0.00%     67.21% # attempts to use FU when none available
system.cpu.iq.fu_full::SimdFloatCvt                 0      0.00%     67.21% # attempts to use FU when none available
system.cpu.iq.fu_full::SimdFloatDiv                 0      0.00%     67.21% # attempts to use FU when none available
system.cpu.iq.fu_full::SimdFloatMisc                0      0.00%     67.21% # attempts to use FU when none available
system.cpu.iq.fu_full::SimdFloatMult                0      0.00%     67.21% # attempts to use FU when none available
system.cpu.iq.fu_full::SimdFloatMultAcc             0      0.00%     67.21% # attempts to use FU when none available
system.cpu.iq.fu_full::SimdFloatSqrt                0      0.00%     67.21% # attempts to use FU when none available
system.cpu.iq.fu_full::MemRead                   8915     23.29%     90.50% # attempts to use FU when none available
system.cpu.iq.fu_full::MemWrite                  3602      9.41%     99.91% # attempts to use FU when none available
system.cpu.iq.fu_full::FloatMemRead                15      0.04%     99.95% # attempts to use FU when none available
system.cpu.iq.fu_full::FloatMemWrite               18      0.05%    100.00% # attempts to use FU when none available
system.cpu.iq.fu_full::IprAccess                    0      0.00%    100.00% # attempts to use FU when none available
system.cpu.iq.fu_full::InstPrefetch                 0      0.00%    100.00% # attempts to use FU when none available
system.cpu.iq.FU_type_0::No_OpClass             35004      1.36%      1.36% # Type of FU issued
system.cpu.iq.FU_type_0::IntAlu               1906961     74.32%     75.68% # Type of FU issued
system.cpu.iq.FU_type_0::IntMult                 1489      0.06%     75.74% # Type of FU issued
system.cpu.iq.FU_type_0::IntDiv                  1786      0.07%     75.81% # Type of FU issued
system.cpu.iq.FU_type_0::FloatAdd                3027      0.12%     75.93% # Type of FU issued
system.cpu.iq.FU_type_0::FloatCmp                   0      0.00%     75.93% # Type of FU issued
system.cpu.iq.FU_type_0::FloatCvt                   4      0.00%     75.93% # Type of FU issued
system.cpu.iq.FU_type_0::FloatMult                  0      0.00%     75.93% # Type of FU issued
system.cpu.iq.FU_type_0::FloatMultAcc               0      0.00%     75.93% # Type of FU issued
system.cpu.iq.FU_type_0::FloatDiv                   0      0.00%     75.93% # Type of FU issued
system.cpu.iq.FU_type_0::FloatMisc                  0      0.00%     75.93% # Type of FU issued
system.cpu.iq.FU_type_0::FloatSqrt                  0      0.00%     75.93% # Type of FU issued
system.cpu.iq.FU_type_0::SimdAdd                    0      0.00%     75.93% # Type of FU issued
system.cpu.iq.FU_type_0::SimdAddAcc                 0      0.00%     75.93% # Type of FU issued
system.cpu.iq.FU_type_0::SimdAlu                    0      0.00%     75.93% # Type of FU issued
system.cpu.iq.FU_type_0::SimdCmp                    0      0.00%     75.93% # Type of FU issued
system.cpu.iq.FU_type_0::SimdCvt                    0      0.00%     75.93% # Type of FU issued
system.cpu.iq.FU_type_0::SimdMisc                   0      0.00%     75.93% # Type of FU issued
system.cpu.iq.FU_type_0::SimdMult                   0      0.00%     75.93% # Type of FU issued
system.cpu.iq.FU_type_0::SimdMultAcc                0      0.00%     75.93% # Type of FU issued
system.cpu.iq.FU_type_0::SimdShift                  0      0.00%     75.93% # Type of FU issued
system.cpu.iq.FU_type_0::SimdShiftAcc               0      0.00%     75.93% # Type of FU issued
system.cpu.iq.FU_type_0::SimdSqrt                   0      0.00%     75.93% # Type of FU issued
system.cpu.iq.FU_type_0::SimdFloatAdd               0      0.00%     75.93% # Type of FU issued
system.cpu.iq.FU_type_0::SimdFloatAlu               0      0.00%     75.93% # Type of FU issued
system.cpu.iq.FU_type_0::SimdFloatCmp               0      0.00%     75.93% # Type of FU issued
system.cpu.iq.FU_type_0::SimdFloatCvt               0      0.00%     75.93% # Type of FU issued
system.cpu.iq.FU_type_0::SimdFloatDiv               0      0.00%     75.93% # Type of FU issued
system.cpu.iq.FU_type_0::SimdFloatMisc              0      0.00%     75.93% # Type of FU issued
system.cpu.iq.FU_type_0::SimdFloatMult              0      0.00%     75.93% # Type of FU issued
system.cpu.iq.FU_type_0::SimdFloatMultAcc            0      0.00%     75.93% # Type of FU issued
system.cpu.iq.FU_type_0::SimdFloatSqrt              0      0.00%     75.93% # Type of FU issued
system.cpu.iq.FU_type_0::MemRead               378604     14.75%     90.68% # Type of FU issued
system.cpu.iq.FU_type_0::MemWrite              237639      9.26%     99.94% # Type of FU issued
system.cpu.iq.FU_type_0::FloatMemRead            1378      0.05%    100.00% # Type of FU issued
system.cpu.iq.FU_type_0::FloatMemWrite             96      0.00%    100.00% # Type of FU issued
system.cpu.iq.FU_type_0::IprAccess                  0      0.00%    100.00% # Type of FU issued
system.cpu.iq.FU_type_0::InstPrefetch               0      0.00%    100.00% # Type of FU issued
system.cpu.iq.FU_type_0::total                2565988                       # Type of FU issued
system.cpu.iq.rate                           1.026325                       # Inst issue rate
system.cpu.iq.fu_busy_cnt                       38278                       # FU busy when requested
system.cpu.iq.fu_busy_rate                   0.014917                       # FU busy rate (busy events/executed inst)
system.cpu.iq.int_inst_queue_reads            7530883                       # Number of integer instruction queue reads
system.cpu.iq.int_inst_queue_writes           4213376                       # Number of integer instruction queue writes
system.cpu.iq.int_inst_queue_wakeup_accesses      2397676                       # Number of integer instruction queue wakeup accesses
system.cpu.iq.fp_inst_queue_reads                9642                       # Number of floating instruction queue reads
system.cpu.iq.fp_inst_queue_writes              10842                       # Number of floating instruction queue writes
system.cpu.iq.fp_inst_queue_wakeup_accesses         4083                       # Number of floating instruction queue wakeup accesses
system.cpu.iq.int_alu_accesses                2564517                       # Number of integer alu accesses
system.cpu.iq.fp_alu_accesses                    4745                       # Number of floating point alu accesses
system.cpu.iew.lsq.thread0.forwLoads            31530                       # Number of loads that had data forwarded from stores
system.cpu.iew.lsq.thread0.invAddrLoads             0                       # Number of loads ignored due to an invalid address
system.cpu.iew.lsq.thread0.squashedLoads       181195                       # Number of loads squashed
system.cpu.iew.lsq.thread0.ignoredResponses          658                       # Number of memory responses ignored because the instruction is squashed
system.cpu.iew.lsq.thread0.memOrderViolation         1227                       # Number of memory ordering violations
system.cpu.iew.lsq.thread0.squashedStores        87519                       # Number of stores squashed
system.cpu.iew.lsq.thread0.invAddrSwpfs             0                       # Number of software prefetches ignored due to an invalid address
system.cpu.iew.lsq.thread0.blockedLoads             0                       # Number of blocked loads due to partial load-store forwarding
system.cpu.iew.lsq.thread0.rescheduledLoads         1349                       # Number of loads that were rescheduled
system.cpu.iew.lsq.thread0.cacheBlocked          2200                       # Number of times an access to memory failed due to the cache being blocked
system.cpu.iew.iewIdleCycles                        0                       # Number of cycles IEW is idle
system.cpu.iew.iewSquashCycles                  57227                       # Number of cycles IEW is squashing
system.cpu.iew.iewBlockCycles                  296832                       # Number of cycles IEW is blocking
system.cpu.iew.iewUnblockCycles                155556                       # Number of cycles IEW is unblocking
system.cpu.iew.iewDispatchedInsts             2992594                       # Number of instructions dispatched to IQ
system.cpu.iew.iewDispSquashedInsts              5098                       # Number of squashed instructions skipped by dispatch
system.cpu.iew.iewDispLoadInsts                439319                       # Number of dispatched load instructions
system.cpu.iew.iewDispStoreInsts               277679                       # Number of dispatched store instructions
system.cpu.iew.iewDispNonSpecInsts              15329                       # Number of dispatched non-speculative instructions
system.cpu.iew.iewIQFullEvents                   1238                       # Number of times the IQ has become full, causing a stall
system.cpu.iew.iewLSQFullEvents                153815                       # Number of times the LSQ has become full, causing a stall
system.cpu.iew.memOrderViolationEvents           1227                       # Number of memory order violations
system.cpu.iew.predictedTakenIncorrect          16155                       # Number of branches that were predicted taken incorrectly
system.cpu.iew.predictedNotTakenIncorrect        54393                       # Number of branches that were predicted not taken incorrectly
system.cpu.iew.branchMispredicts                70548                       # Number of branch mispredicts detected at execute
system.cpu.iew.iewExecutedInsts               2448266                       # Number of executed instructions
system.cpu.iew.iewExecLoadInsts                349995                       # Number of load instructions executed
system.cpu.iew.iewExecSquashedInsts            106883                       # Number of squashed instructions skipped in execute
system.cpu.iew.exec_swp                             0                       # number of swp insts executed
system.cpu.iew.exec_nop                             3                       # number of nop insts executed
system.cpu.iew.exec_refs                       574430                       # number of memory reference insts executed
system.cpu.iew.exec_branches                   243097                       # Number of branches executed
system.cpu.iew.exec_stores                     224435                       # Number of stores executed
system.cpu.iew.exec_rate                     0.979240                       # Inst execution rate
system.cpu.iew.wb_sent                        2419697                       # cumulative count of insts sent to commit
system.cpu.iew.wb_count                       2401759                       # cumulative count of insts written-back
system.cpu.iew.wb_producers                   1581893                       # num instructions producing a value
system.cpu.iew.wb_consumers                   2538589                       # num instructions consuming a value
system.cpu.iew.wb_rate                       0.960638                       # insts written-back per cycle
system.cpu.iew.wb_fanout                     0.623139                       # average fanout of values written-back
system.cpu.commit.commitSquashedInsts         1229110                       # The number of squashed insts skipped by commit
system.cpu.commit.commitNonSpecStalls           11671                       # The number of times commit has been forced to stall to communicate backwards
system.cpu.commit.branchMispredicts             54697                       # The number of times a branch was mispredicted
system.cpu.commit.committed_per_cycle::samples      2147036                       # Number of insts commited each cycle
system.cpu.commit.committed_per_cycle::mean     0.820748                       # Number of insts commited each cycle
system.cpu.commit.committed_per_cycle::stdev     1.901211                       # Number of insts commited each cycle
system.cpu.commit.committed_per_cycle::underflows            0      0.00%      0.00% # Number of insts commited each cycle
system.cpu.commit.committed_per_cycle::0      1613556     75.15%     75.15% # Number of insts commited each cycle
system.cpu.commit.committed_per_cycle::1       190717      8.88%     84.04% # Number of insts commited each cycle
system.cpu.commit.committed_per_cycle::2        77326      3.60%     87.64% # Number of insts commited each cycle
system.cpu.commit.committed_per_cycle::3        78484      3.66%     91.29% # Number of insts commited each cycle
system.cpu.commit.committed_per_cycle::4        45172      2.10%     93.40% # Number of insts commited each cycle
system.cpu.commit.committed_per_cycle::5        28772      1.34%     94.74% # Number of insts commited each cycle
system.cpu.commit.committed_per_cycle::6        17481      0.81%     95.55% # Number of insts commited each cycle
system.cpu.commit.committed_per_cycle::7        12304      0.57%     96.12% # Number of insts commited each cycle
system.cpu.commit.committed_per_cycle::8        83224      3.88%    100.00% # Number of insts commited each cycle
system.cpu.commit.committed_per_cycle::overflows            0      0.00%    100.00% # Number of insts commited each cycle
system.cpu.commit.committed_per_cycle::min_value            0                       # Number of insts commited each cycle
system.cpu.commit.committed_per_cycle::max_value            8                       # Number of insts commited each cycle
system.cpu.commit.committed_per_cycle::total      2147036                       # Number of insts commited each cycle
system.cpu.commit.committedInsts               940888                       # Number of instructions committed
system.cpu.commit.committedOps                1762175                       # Number of ops (including micro ops) committed
system.cpu.commit.swp_count                         0                       # Number of s/w prefetches committed
system.cpu.commit.refs                         448289                       # Number of memory references committed
system.cpu.commit.loads                        258128                       # Number of loads committed
system.cpu.commit.membars                        1114                       # Number of memory barriers committed
system.cpu.commit.branches                     188798                       # Number of branches committed
system.cpu.commit.vec_insts                         0                       # Number of committed Vector instructions.
system.cpu.commit.fp_insts                       2404                       # Number of committed floating point instructions.
system.cpu.commit.int_insts                   1744437                       # Number of committed integer instructions.
system.cpu.commit.function_calls                19882                       # Number of function calls committed.
system.cpu.commit.op_class_0::No_OpClass        14771      0.84%      0.84% # Class of committed instruction
system.cpu.commit.op_class_0::IntAlu          1294379     73.45%     74.29% # Class of committed instruction
system.cpu.commit.op_class_0::IntMult            1270      0.07%     74.36% # Class of committed instruction
system.cpu.commit.op_class_0::IntDiv             1644      0.09%     74.46% # Class of committed instruction
system.cpu.commit.op_class_0::FloatAdd           1822      0.10%     74.56% # Class of committed instruction
system.cpu.commit.op_class_0::FloatCmp              0      0.00%     74.56% # Class of committed instruction
system.cpu.commit.op_class_0::FloatCvt              0      0.00%     74.56% # Class of committed instruction
system.cpu.commit.op_class_0::FloatMult             0      0.00%     74.56% # Class of committed instruction
system.cpu.commit.op_class_0::FloatMultAcc            0      0.00%     74.56% # Class of committed instruction
system.cpu.commit.op_class_0::FloatDiv              0      0.00%     74.56% # Class of committed instruction
system.cpu.commit.op_class_0::FloatMisc             0      0.00%     74.56% # Class of committed instruction
system.cpu.commit.op_class_0::FloatSqrt             0      0.00%     74.56% # Class of committed instruction
system.cpu.commit.op_class_0::SimdAdd               0      0.00%     74.56% # Class of committed instruction
system.cpu.commit.op_class_0::SimdAddAcc            0      0.00%     74.56% # Class of committed instruction
system.cpu.commit.op_class_0::SimdAlu               0      0.00%     74.56% # Class of committed instruction
system.cpu.commit.op_class_0::SimdCmp               0      0.00%     74.56% # Class of committed instruction
system.cpu.commit.op_class_0::SimdCvt               0      0.00%     74.56% # Class of committed instruction
system.cpu.commit.op_class_0::SimdMisc              0      0.00%     74.56% # Class of committed instruction
system.cpu.commit.op_class_0::SimdMult              0      0.00%     74.56% # Class of committed instruction
system.cpu.commit.op_class_0::SimdMultAcc            0      0.00%     74.56% # Class of committed instruction
system.cpu.commit.op_class_0::SimdShift             0      0.00%     74.56% # Class of committed instruction
system.cpu.commit.op_class_0::SimdShiftAcc            0      0.00%     74.56% # Class of committed instruction
system.cpu.commit.op_class_0::SimdSqrt              0      0.00%     74.56% # Class of committed instruction
system.cpu.commit.op_class_0::SimdFloatAdd            0      0.00%     74.56% # Class of committed instruction
system.cpu.commit.op_class_0::SimdFloatAlu            0      0.00%     74.56% # Class of committed instruction
system.cpu.commit.op_class_0::SimdFloatCmp            0      0.00%     74.56% # Class of committed instruction
system.cpu.commit.op_class_0::SimdFloatCvt            0      0.00%     74.56% # Class of committed instruction
system.cpu.commit.op_class_0::SimdFloatDiv            0      0.00%     74.56% # Class of committed instruction
system.cpu.commit.op_class_0::SimdFloatMisc            0      0.00%     74.56% # Class of committed instruction
system.cpu.commit.op_class_0::SimdFloatMult            0      0.00%     74.56% # Class of committed instruction
system.cpu.commit.op_class_0::SimdFloatMultAcc            0      0.00%     74.56% # Class of committed instruction
system.cpu.commit.op_class_0::SimdFloatSqrt            0      0.00%     74.56% # Class of committed instruction
system.cpu.commit.op_class_0::MemRead          257674     14.62%     89.18% # Class of committed instruction
system.cpu.commit.op_class_0::MemWrite         190161     10.79%     99.97% # Class of committed instruction
system.cpu.commit.op_class_0::FloatMemRead          454      0.03%    100.00% # Class of committed instruction
system.cpu.commit.op_class_0::FloatMemWrite            0      0.00%    100.00% # Class of committed instruction
system.cpu.commit.op_class_0::IprAccess             0      0.00%    100.00% # Class of committed instruction
system.cpu.commit.op_class_0::InstPrefetch            0      0.00%    100.00% # Class of committed instruction
system.cpu.commit.op_class_0::total           1762175                       # Class of committed instruction
system.cpu.commit.bw_lim_events                 83224                       # number cycles where commit BW limit reached
system.cpu.rob.rob_reads                      5049516                       # The number of ROB reads
system.cpu.rob.rob_writes                     6189308                       # The number of ROB writes
system.cpu.timesIdled                            7345                       # Number of times that the entire CPU went into an idle state and unscheduled itself
system.cpu.idleCycles                          150391                       # Total number of cycles that the CPU has spent unscheduled due to idling
system.cpu.committedInsts                      940888                       # Number of Instructions Simulated
system.cpu.committedOps                       1762175                       # Number of Ops (including micro ops) Simulated
system.cpu.cpi                               2.657245                       # CPI: Cycles Per Instruction
system.cpu.cpi_total                         2.657245                       # CPI: Total CPI of All Threads
system.cpu.ipc                               0.376330                       # IPC: Instructions Per Cycle
system.cpu.ipc_total                         0.376330                       # IPC: Total IPC of All Threads
system.cpu.int_regfile_reads                  3614148                       # number of integer regfile reads
system.cpu.int_regfile_writes                 1916322                       # number of integer regfile writes
system.cpu.fp_regfile_reads                      6507                       # number of floating regfile reads
system.cpu.fp_regfile_writes                     3434                       # number of floating regfile writes
system.cpu.cc_regfile_reads                   1093949                       # number of cc regfile reads
system.cpu.cc_regfile_writes                   708780                       # number of cc regfile writes
system.cpu.misc_regfile_reads                 1108668                       # number of misc regfile reads
system.cpu.misc_regfile_writes                  13123                       # number of misc regfile writes
system.cpu.dcache.tags.pwrStateResidencyTicks::UNDEFINED 4803297393500                       # Cumulative time (in ticks) in various power states
system.cpu.dcache.tags.replacements             21244                       # number of replacements
system.cpu.dcache.tags.tagsinuse                 1024                       # Cycle average of tags in use
system.cpu.dcache.tags.total_refs              456964                       # Total number of references to valid blocks.
system.cpu.dcache.tags.sampled_refs             21244                       # Sample count of references to valid blocks.
system.cpu.dcache.tags.avg_refs             21.510262                       # Average number of references to valid blocks.
system.cpu.dcache.tags.warmup_cycle                 0                       # Cycle when the warmup percentage was hit.
system.cpu.dcache.tags.occ_blocks::cpu.data         1024                       # Average occupied blocks per requestor
system.cpu.dcache.tags.occ_percent::cpu.data            1                       # Average percentage of cache occupancy
system.cpu.dcache.tags.occ_percent::total            1                       # Average percentage of cache occupancy
system.cpu.dcache.tags.occ_task_id_blocks::1024         1024                       # Occupied blocks per task id
system.cpu.dcache.tags.age_task_id_blocks_1024::0           59                       # Occupied blocks per task id
system.cpu.dcache.tags.age_task_id_blocks_1024::1          727                       # Occupied blocks per task id
system.cpu.dcache.tags.age_task_id_blocks_1024::2          237                       # Occupied blocks per task id
system.cpu.dcache.tags.age_task_id_blocks_1024::3            1                       # Occupied blocks per task id
system.cpu.dcache.tags.occ_task_id_percent::1024            1                       # Percentage of cache occupancy per task id
system.cpu.dcache.tags.tag_accesses           1030518                       # Number of tag accesses
system.cpu.dcache.tags.data_accesses          1030518                       # Number of data accesses
system.cpu.dcache.pwrStateResidencyTicks::UNDEFINED 4803297393500                       # Cumulative time (in ticks) in various power states
system.cpu.dcache.ReadReq_hits::cpu.data       289338                       # number of ReadReq hits
system.cpu.dcache.ReadReq_hits::total          289338                       # number of ReadReq hits
system.cpu.dcache.WriteReq_hits::cpu.data       181107                       # number of WriteReq hits
system.cpu.dcache.WriteReq_hits::total         181107                       # number of WriteReq hits
system.cpu.dcache.SoftPFReq_hits::cpu.data          551                       # number of SoftPFReq hits
system.cpu.dcache.SoftPFReq_hits::total           551                       # number of SoftPFReq hits
system.cpu.dcache.demand_hits::cpu.data        470445                       # number of demand (read+write) hits
system.cpu.dcache.demand_hits::total           470445                       # number of demand (read+write) hits
system.cpu.dcache.overall_hits::cpu.data       470996                       # number of overall hits
system.cpu.dcache.overall_hits::total          470996                       # number of overall hits
system.cpu.dcache.ReadReq_misses::cpu.data        21700                       # number of ReadReq misses
system.cpu.dcache.ReadReq_misses::total         21700                       # number of ReadReq misses
system.cpu.dcache.WriteReq_misses::cpu.data         8997                       # number of WriteReq misses
system.cpu.dcache.WriteReq_misses::total         8997                       # number of WriteReq misses
system.cpu.dcache.SoftPFReq_misses::cpu.data         2944                       # number of SoftPFReq misses
system.cpu.dcache.SoftPFReq_misses::total         2944                       # number of SoftPFReq misses
system.cpu.dcache.demand_misses::cpu.data        30697                       # number of demand (read+write) misses
system.cpu.dcache.demand_misses::total          30697                       # number of demand (read+write) misses
system.cpu.dcache.overall_misses::cpu.data        33641                       # number of overall misses
system.cpu.dcache.overall_misses::total         33641                       # number of overall misses
system.cpu.dcache.ReadReq_miss_latency::cpu.data    280582000                       # number of ReadReq miss cycles
system.cpu.dcache.ReadReq_miss_latency::total    280582000                       # number of ReadReq miss cycles
system.cpu.dcache.WriteReq_miss_latency::cpu.data    161101487                       # number of WriteReq miss cycles
system.cpu.dcache.WriteReq_miss_latency::total    161101487                       # number of WriteReq miss cycles
system.cpu.dcache.demand_miss_latency::cpu.data    441683487                       # number of demand (read+write) miss cycles
system.cpu.dcache.demand_miss_latency::total    441683487                       # number of demand (read+write) miss cycles
system.cpu.dcache.overall_miss_latency::cpu.data    441683487                       # number of overall miss cycles
[...]
system.l2cache.demand_mshr_misses::total         1540                       # number of demand (read+write) MSHR misses
system.l2cache.overall_mshr_misses::cpu.inst          533                       # number of overall MSHR misses
system.l2cache.overall_mshr_misses::cpu.data         1007                       # number of overall MSHR misses
system.l2cache.overall_mshr_misses::total         1540                       # number of overall MSHR misses
system.l2cache.ReadReq_mshr_uncacheable::cpu.data          347                       # number of ReadReq MSHR uncacheable
system.l2cache.ReadReq_mshr_uncacheable::total          347                       # number of ReadReq MSHR uncacheable
system.l2cache.WriteReq_mshr_uncacheable::cpu.data          129                       # number of WriteReq MSHR uncacheable
system.l2cache.WriteReq_mshr_uncacheable::total          129                       # number of WriteReq MSHR uncacheable
system.l2cache.overall_mshr_uncacheable_misses::cpu.data          476                       # number of overall MSHR uncacheable misses
system.l2cache.overall_mshr_uncacheable_misses::total          476                       # number of overall MSHR uncacheable misses
system.l2cache.UpgradeReq_mshr_miss_latency::cpu.data     12399498                       # number of UpgradeReq MSHR miss cycles
system.l2cache.UpgradeReq_mshr_miss_latency::total     12399498                       # number of UpgradeReq MSHR miss cycles
system.l2cache.ReadExReq_mshr_miss_latency::cpu.data     46752500                       # number of ReadExReq MSHR miss cycles
system.l2cache.ReadExReq_mshr_miss_latency::total     46752500                       # number of ReadExReq MSHR miss cycles
system.l2cache.ReadSharedReq_mshr_miss_latency::cpu.inst     43077500                       # number of ReadSharedReq MSHR miss cycles
system.l2cache.ReadSharedReq_mshr_miss_latency::cpu.data     24735500                       # number of ReadSharedReq MSHR miss cycles
system.l2cache.ReadSharedReq_mshr_miss_latency::total     67813000                       # number of ReadSharedReq MSHR miss cycles
system.l2cache.demand_mshr_miss_latency::cpu.inst     43077500                       # number of demand (read+write) MSHR miss cycles
system.l2cache.demand_mshr_miss_latency::cpu.data     71488000                       # number of demand (read+write) MSHR miss cycles
system.l2cache.demand_mshr_miss_latency::total    114565500                       # number of demand (read+write) MSHR miss cycles
system.l2cache.overall_mshr_miss_latency::cpu.inst     43077500                       # number of overall MSHR miss cycles
system.l2cache.overall_mshr_miss_latency::cpu.data     71488000                       # number of overall MSHR miss cycles
system.l2cache.overall_mshr_miss_latency::total    114565500                       # number of overall MSHR miss cycles
system.l2cache.ReadReq_mshr_uncacheable_latency::cpu.data     75819500                       # number of ReadReq MSHR uncacheable cycles
system.l2cache.ReadReq_mshr_uncacheable_latency::total     75819500                       # number of ReadReq MSHR uncacheable cycles
system.l2cache.overall_mshr_uncacheable_latency::cpu.data     75819500                       # number of overall MSHR uncacheable cycles
system.l2cache.overall_mshr_uncacheable_latency::total     75819500                       # number of overall MSHR uncacheable cycles
system.l2cache.UpgradeReq_mshr_miss_rate::cpu.data     0.933260                       # mshr miss rate for UpgradeReq accesses
system.l2cache.UpgradeReq_mshr_miss_rate::total     0.933260                       # mshr miss rate for UpgradeReq accesses
system.l2cache.ReadExReq_mshr_miss_rate::cpu.data     0.058317                       # mshr miss rate for ReadExReq accesses
system.l2cache.ReadExReq_mshr_miss_rate::total     0.058317                       # mshr miss rate for ReadExReq accesses
system.l2cache.ReadSharedReq_mshr_miss_rate::cpu.inst     0.016288                       # mshr miss rate for ReadSharedReq accesses
system.l2cache.ReadSharedReq_mshr_miss_rate::cpu.data     0.011112                       # mshr miss rate for ReadSharedReq accesses
system.l2cache.ReadSharedReq_mshr_miss_rate::total     0.014293                       # mshr miss rate for ReadSharedReq accesses
system.l2cache.demand_mshr_miss_rate::cpu.inst     0.016288                       # mshr miss rate for demand accesses
system.l2cache.demand_mshr_miss_rate::cpu.data     0.029725                       # mshr miss rate for demand accesses
system.l2cache.demand_mshr_miss_rate::total     0.023123                       # mshr miss rate for demand accesses
system.l2cache.overall_mshr_miss_rate::cpu.inst     0.016288                       # mshr miss rate for overall accesses
system.l2cache.overall_mshr_miss_rate::cpu.data     0.029725                       # mshr miss rate for overall accesses
system.l2cache.overall_mshr_miss_rate::total     0.023123                       # mshr miss rate for overall accesses
system.l2cache.UpgradeReq_avg_mshr_miss_latency::cpu.data 14536.339977                       # average UpgradeReq mshr miss latency
system.l2cache.UpgradeReq_avg_mshr_miss_latency::total 14536.339977                       # average UpgradeReq mshr miss latency
system.l2cache.ReadExReq_avg_mshr_miss_latency::cpu.data 60016.046213                       # average ReadExReq mshr miss latency
system.l2cache.ReadExReq_avg_mshr_miss_latency::total 60016.046213                       # average ReadExReq mshr miss latency
system.l2cache.ReadSharedReq_avg_mshr_miss_latency::cpu.inst 80820.825516                       # average ReadSharedReq mshr miss latency
system.l2cache.ReadSharedReq_avg_mshr_miss_latency::cpu.data 108489.035088                       # average ReadSharedReq mshr miss latency
system.l2cache.ReadSharedReq_avg_mshr_miss_latency::total 89110.381078                       # average ReadSharedReq mshr miss latency
system.l2cache.demand_avg_mshr_miss_latency::cpu.inst 80820.825516                       # average overall mshr miss latency
system.l2cache.demand_avg_mshr_miss_latency::cpu.data 70991.062562                       # average overall mshr miss latency
system.l2cache.demand_avg_mshr_miss_latency::total 74393.181818                       # average overall mshr miss latency
system.l2cache.overall_avg_mshr_miss_latency::cpu.inst 80820.825516                       # average overall mshr miss latency
system.l2cache.overall_avg_mshr_miss_latency::cpu.data 70991.062562                       # average overall mshr miss latency
system.l2cache.overall_avg_mshr_miss_latency::total 74393.181818                       # average overall mshr miss latency
system.l2cache.ReadReq_avg_mshr_uncacheable_latency::cpu.data       218500                       # average ReadReq mshr uncacheable latency
system.l2cache.ReadReq_avg_mshr_uncacheable_latency::total       218500                       # average ReadReq mshr uncacheable latency
system.l2cache.overall_avg_mshr_uncacheable_latency::cpu.data 159284.663866                       # average overall mshr uncacheable latency
system.l2cache.overall_avg_mshr_uncacheable_latency::total 159284.663866                       # average overall mshr uncacheable latency
system.membus.snoop_filter.tot_requests         37267                       # Total number of requests made to the snoop filter.
system.membus.snoop_filter.hit_single_requests        35867                       # Number of requests hitting in the snoop filter with a single holder of the requested data.
system.membus.snoop_filter.hit_multi_requests            0                       # Number of requests hitting in the snoop filter with multiple (>1) holders of the requested data.
system.membus.snoop_filter.tot_snoops               0                       # Total number of snoops made to the snoop filter.
system.membus.snoop_filter.hit_single_snoops            0                       # Number of snoops hitting in the snoop filter with a single holder of the requested data.
system.membus.snoop_filter.hit_multi_snoops            0                       # Number of snoops hitting in the snoop filter with multiple (>1) holders of the requested data.
system.membus.pwrStateResidencyTicks::UNDEFINED 4803934525000                       # Cumulative time (in ticks) in various power states
system.membus.trans_dist::ReadReq               37296                       # Transaction distribution
system.membus.trans_dist::ReadResp              38057                       # Transaction distribution
system.membus.trans_dist::WriteReq                129                       # Transaction distribution
system.membus.trans_dist::WriteResp               129                       # Transaction distribution
system.membus.trans_dist::WritebackDirty          651                       # Transaction distribution
system.membus.trans_dist::CleanEvict              640                       # Transaction distribution
system.membus.trans_dist::UpgradeReq              994                       # Transaction distribution
system.membus.trans_dist::ReadExReq               639                       # Transaction distribution
system.membus.trans_dist::ReadExResp              639                       # Transaction distribution
system.membus.trans_dist::ReadSharedReq           761                       # Transaction distribution
system.membus.trans_dist::MessageReq              117                       # Transaction distribution
system.membus.trans_dist::MessageResp             117                       # Transaction distribution
system.membus.pkt_count_system.apicbridge.master::system.cpu.interrupts.int_slave          234                       # Packet count per connected master and slave (bytes)
system.membus.pkt_count_system.apicbridge.master::total          234                       # Packet count per connected master and slave (bytes)
system.membus.pkt_count_system.l2cache.mem_side::system.bridge.slave          936                       # Packet count per connected master and slave (bytes)
system.membus.pkt_count_system.l2cache.mem_side::system.mem_cntrl.port         5085                       # Packet count per connected master and slave (bytes)
system.membus.pkt_count_system.l2cache.mem_side::system.cpu.interrupts.pio           16                       # Packet count per connected master and slave (bytes)
system.membus.pkt_count_system.l2cache.mem_side::total         6037                       # Packet count per connected master and slave (bytes)
system.membus.pkt_count_system.cpu.itb.walker.port::system.mem_cntrl.port         8049                       # Packet count per connected master and slave (bytes)
system.membus.pkt_count_system.cpu.itb.walker.port::total         8049                       # Packet count per connected master and slave (bytes)
system.membus.pkt_count_system.cpu.dtb.walker.port::system.mem_cntrl.port        32316                       # Packet count per connected master and slave (bytes)
system.membus.pkt_count_system.cpu.dtb.walker.port::total        32316                       # Packet count per connected master and slave (bytes)
system.membus.pkt_count::total                  46636                       # Packet count per connected master and slave (bytes)
system.membus.pkt_size_system.apicbridge.master::system.cpu.interrupts.int_slave          468                       # Cumulative packet size per connected master and slave (bytes)
system.membus.pkt_size_system.apicbridge.master::total          468                       # Cumulative packet size per connected master and slave (bytes)
system.membus.pkt_size_system.l2cache.mem_side::system.bridge.slave          468                       # Cumulative packet size per connected master and slave (bytes)
system.membus.pkt_size_system.l2cache.mem_side::system.mem_cntrl.port       131264                       # Cumulative packet size per connected master and slave (bytes)
system.membus.pkt_size_system.l2cache.mem_side::system.cpu.interrupts.pio           32                       # Cumulative packet size per connected master and slave (bytes)
system.membus.pkt_size_system.l2cache.mem_side::total       131764                       # Cumulative packet size per connected master and slave (bytes)
system.membus.pkt_size_system.cpu.itb.walker.port::system.mem_cntrl.port          600                       # Cumulative packet size per connected master and slave (bytes)
system.membus.pkt_size_system.cpu.itb.walker.port::total          600                       # Cumulative packet size per connected master and slave (bytes)
system.membus.pkt_size_system.cpu.dtb.walker.port::system.mem_cntrl.port        26728                       # Cumulative packet size per connected master and slave (bytes)
system.membus.pkt_size_system.cpu.dtb.walker.port::total        26728                       # Cumulative packet size per connected master and slave (bytes)
system.membus.pkt_size::total                  159560                       # Cumulative packet size per connected master and slave (bytes)
system.membus.snoops                            33534                       # Total snoops (count)
system.membus.snoopTraffic                     268264                       # Total snoop traffic (bytes)
system.membus.snoop_fanout::samples             39936                       # Request fanout histogram
system.membus.snoop_fanout::mean             0.840895                       # Request fanout histogram
system.membus.snoop_fanout::stdev            0.365778                       # Request fanout histogram
system.membus.snoop_fanout::underflows              0      0.00%      0.00% # Request fanout histogram
system.membus.snoop_fanout::0                    6354     15.91%     15.91% # Request fanout histogram
system.membus.snoop_fanout::1                   33582     84.09%    100.00% # Request fanout histogram
system.membus.snoop_fanout::2                       0      0.00%    100.00% # Request fanout histogram
system.membus.snoop_fanout::overflows               0      0.00%    100.00% # Request fanout histogram
system.membus.snoop_fanout::min_value               0                       # Request fanout histogram
system.membus.snoop_fanout::max_value               1                       # Request fanout histogram
system.membus.snoop_fanout::total               39936                       # Request fanout histogram
system.membus.reqLayer0.occupancy              294500                       # Layer occupancy (ticks)
system.membus.reqLayer0.utilization               0.0                       # Layer utilization (%)
system.membus.reqLayer1.occupancy            21619997                       # Layer occupancy (ticks)
system.membus.reqLayer1.utilization               1.1                       # Layer utilization (%)
system.membus.reqLayer2.occupancy                8000                       # Layer occupancy (ticks)
system.membus.reqLayer2.utilization               0.0                       # Layer utilization (%)
system.membus.reqLayer3.occupancy              117000                       # Layer occupancy (ticks)
system.membus.reqLayer3.utilization               0.0                       # Layer utilization (%)
system.membus.respLayer1.occupancy              58500                       # Layer occupancy (ticks)
system.membus.respLayer1.utilization              0.0                       # Layer utilization (%)
system.membus.respLayer3.occupancy            4167249                       # Layer occupancy (ticks)
system.membus.respLayer3.utilization              0.2                       # Layer utilization (%)
system.membus.respLayer4.occupancy            8108255                       # Layer occupancy (ticks)
system.membus.respLayer4.utilization              0.4                       # Layer utilization (%)
system.membus.respLayer5.occupancy           29704434                       # Layer occupancy (ticks)
system.membus.respLayer5.utilization              1.6                       # Layer utilization (%)
system.membus.badaddr_responder.pwrStateResidencyTicks::UNDEFINED 4803934525000                       # Cumulative time (in ticks) in various power states
system.pc.behind_pci.pwrStateResidencyTicks::UNDEFINED 4803934525000                       # Cumulative time (in ticks) in various power states
system.pc.com_1.pwrStateResidencyTicks::UNDEFINED 4803934525000                       # Cumulative time (in ticks) in various power states
system.pc.fake_com_2.pwrStateResidencyTicks::UNDEFINED 4803934525000                       # Cumulative time (in ticks) in various power states
system.pc.fake_com_3.pwrStateResidencyTicks::UNDEFINED 4803934525000                       # Cumulative time (in ticks) in various power states
system.pc.fake_com_4.pwrStateResidencyTicks::UNDEFINED 4803934525000                       # Cumulative time (in ticks) in various power states
system.pc.fake_floppy.pwrStateResidencyTicks::UNDEFINED 4803934525000                       # Cumulative time (in ticks) in various power states
system.pc.i_dont_exist1.pwrStateResidencyTicks::UNDEFINED 4803934525000                       # Cumulative time (in ticks) in various power states
system.pc.i_dont_exist2.pwrStateResidencyTicks::UNDEFINED 4803934525000                       # Cumulative time (in ticks) in various power states
system.pc.pci_host.pwrStateResidencyTicks::UNDEFINED 4803934525000                       # Cumulative time (in ticks) in various power states
system.pc.south_bridge.cmos.pwrStateResidencyTicks::UNDEFINED 4803934525000                       # Cumulative time (in ticks) in various power states
system.pc.south_bridge.dma1.pwrStateResidencyTicks::UNDEFINED 4803934525000                       # Cumulative time (in ticks) in various power states
system.pc.south_bridge.pic2.pwrStateResidencyTicks::UNDEFINED 4803934525000                       # Cumulative time (in ticks) in various power states
system.pc.south_bridge.pic1.pwrStateResidencyTicks::UNDEFINED 4803934525000                       # Cumulative time (in ticks) in various power states
system.pc.south_bridge.io_apic.pwrStateResidencyTicks::UNDEFINED 4803934525000                       # Cumulative time (in ticks) in various power states
system.pc.south_bridge.keyboard.pwrStateResidencyTicks::UNDEFINED 4803934525000                       # Cumulative time (in ticks) in various power states
system.pc.south_bridge.pit.pwrStateResidencyTicks::UNDEFINED 4803934525000                       # Cumulative time (in ticks) in various power states
system.pc.south_bridge.speaker.pwrStateResidencyTicks::UNDEFINED 4803934525000                       # Cumulative time (in ticks) in various power states
system.pc.south_bridge.ide.disks.dma_read_full_pages            0                       # Number of full page size DMA reads (not PRD).
system.pc.south_bridge.ide.disks.dma_read_bytes            0                       # Number of bytes transfered via DMA reads (not PRD).
system.pc.south_bridge.ide.disks.dma_read_txs            0                       # Number of DMA read transactions (not PRD).
system.pc.south_bridge.ide.disks.dma_write_full_pages            0                       # Number of full page size DMA writes.
system.pc.south_bridge.ide.disks.dma_write_bytes            0                       # Number of bytes transfered via DMA writes.
system.pc.south_bridge.ide.disks.dma_write_txs            0                       # Number of DMA write transactions.
system.pc.south_bridge.ide.pwrStateResidencyTicks::UNDEFINED 4803934525000                       # Cumulative time (in ticks) in various power states
system.cpu.kern.inst.arm                            0                       # number of arm instructions executed
system.cpu.kern.inst.quiesce                        0                       # number of quiesce instructions executed

---------- End Simulation Statistics   ----------
