
---------- Begin Simulation Statistics ----------
sim_seconds                                  0.001224                       # Number of seconds simulated
sim_ticks                                  1223685500                       # Number of ticks simulated
final_tick                               4783210735000                       # Number of ticks from beginning of simulation (restored from checkpoints and never reset)
sim_freq                                 1000000000000                       # Frequency of simulated ticks
host_inst_rate                               49048701                       # Simulator instruction rate (inst/s)
host_op_rate                                114624251                       # Simulator op (including micro ops) rate (op/s)
host_tick_rate                               40425637                       # Simulator tick rate (ticks/s)
host_mem_usage                                1514104                       # Number of bytes of host memory used
host_seconds                                    30.27                       # Real time elapsed on the host
sim_insts                                  1484703755                       # Number of instructions simulated
sim_ops                                    3469677753                       # Number of ops (including micro ops) simulated
system.clk_domain.voltage_domain.voltage            1                       # Voltage in Volts
system.clk_domain.clock                           500                       # Clock period in ticks
system.mem_cntrl.pwrStateResidencyTicks::UNDEFINED 4783210735000                       # Cumulative time (in ticks) in various power states
system.mem_cntrl.bytes_read::cpu.dtb.walker        16272                       # Number of bytes read from this memory
system.mem_cntrl.bytes_read::cpu.itb.walker          408                       # Number of bytes read from this memory
system.mem_cntrl.bytes_read::cpu.inst           30528                       # Number of bytes read from this memory
system.mem_cntrl.bytes_read::cpu.data           38336                       # Number of bytes read from this memory
system.mem_cntrl.bytes_read::total              85544                       # Number of bytes read from this memory
system.mem_cntrl.bytes_inst_read::cpu.inst        30528                       # Number of instructions bytes read from this memory
system.mem_cntrl.bytes_inst_read::total         30528                       # Number of instructions bytes read from this memory
system.mem_cntrl.bytes_written::writebacks        25536                       # Number of bytes written to this memory
system.mem_cntrl.bytes_written::total           25536                       # Number of bytes written to this memory
system.mem_cntrl.num_reads::cpu.dtb.walker         2034                       # Number of read requests responded to by this memory
system.mem_cntrl.num_reads::cpu.itb.walker           51                       # Number of read requests responded to by this memory
system.mem_cntrl.num_reads::cpu.inst              477                       # Number of read requests responded to by this memory
system.mem_cntrl.num_reads::cpu.data              599                       # Number of read requests responded to by this memory
system.mem_cntrl.num_reads::total                3161                       # Number of read requests responded to by this memory
system.mem_cntrl.num_writes::writebacks           399                       # Number of write requests responded to by this memory
system.mem_cntrl.num_writes::total                399                       # Number of write requests responded to by this memory
system.mem_cntrl.bw_read::cpu.dtb.walker     13297534                       # Total read bandwidth from this memory (bytes/s)
system.mem_cntrl.bw_read::cpu.itb.walker       333419                       # Total read bandwidth from this memory (bytes/s)
system.mem_cntrl.bw_read::cpu.inst           24947587                       # Total read bandwidth from this memory (bytes/s)
system.mem_cntrl.bw_read::cpu.data           31328311                       # Total read bandwidth from this memory (bytes/s)
system.mem_cntrl.bw_read::total              69906851                       # Total read bandwidth from this memory (bytes/s)
system.mem_cntrl.bw_inst_read::cpu.inst      24947587                       # Instruction read bandwidth from this memory (bytes/s)
system.mem_cntrl.bw_inst_read::total         24947587                       # Instruction read bandwidth from this memory (bytes/s)
system.mem_cntrl.bw_write::writebacks        20868107                       # Write bandwidth from this memory (bytes/s)
system.mem_cntrl.bw_write::total             20868107                       # Write bandwidth from this memory (bytes/s)
system.mem_cntrl.bw_total::writebacks        20868107                       # Total bandwidth to/from this memory (bytes/s)
system.mem_cntrl.bw_total::cpu.dtb.walker     13297534                       # Total bandwidth to/from this memory (bytes/s)
system.mem_cntrl.bw_total::cpu.itb.walker       333419                       # Total bandwidth to/from this memory (bytes/s)
system.mem_cntrl.bw_total::cpu.inst          24947587                       # Total bandwidth to/from this memory (bytes/s)
system.mem_cntrl.bw_total::cpu.data          31328311                       # Total bandwidth to/from this memory (bytes/s)
system.mem_cntrl.bw_total::total             90774958                       # Total bandwidth to/from this memory (bytes/s)
system.mem_cntrl.readReqs                        3161                       # Number of read requests accepted
system.mem_cntrl.writeReqs                        399                       # Number of write requests accepted
system.mem_cntrl.readBursts                      3161                       # Number of DRAM read bursts, including those serviced by the write queue
system.mem_cntrl.writeBursts                      399                       # Number of DRAM write bursts, including those merged in the write queue
system.mem_cntrl.bytesReadDRAM                 201984                       # Total number of bytes read from DRAM
system.mem_cntrl.bytesReadWrQ                     320                       # Total number of bytes read from write queue
system.mem_cntrl.bytesWritten                   25280                       # Total number of bytes written to DRAM
system.mem_cntrl.bytesReadSys                   85544                       # Total read bytes from the system interface side
system.mem_cntrl.bytesWrittenSys                25536                       # Total written bytes from the system interface side
system.mem_cntrl.servicedByWrQ                      5                       # Number of DRAM read bursts serviced by the write queue
system.mem_cntrl.mergedWrBursts                     0                       # Number of DRAM write bursts merged with an existing one
system.mem_cntrl.neitherReadNorWriteReqs            0                       # Number of requests that are neither read nor write
system.mem_cntrl.perBankRdBursts::0               100                       # Per bank write bursts
system.mem_cntrl.perBankRdBursts::1                52                       # Per bank write bursts
system.mem_cntrl.perBankRdBursts::2                19                       # Per bank write bursts
system.mem_cntrl.perBankRdBursts::3                17                       # Per bank write bursts
system.mem_cntrl.perBankRdBursts::4               295                       # Per bank write bursts
system.mem_cntrl.perBankRdBursts::5               282                       # Per bank write bursts
system.mem_cntrl.perBankRdBursts::6               835                       # Per bank write bursts
system.mem_cntrl.perBankRdBursts::7               200                       # Per bank write bursts
system.mem_cntrl.perBankRdBursts::8               626                       # Per bank write bursts
system.mem_cntrl.perBankRdBursts::9               109                       # Per bank write bursts
system.mem_cntrl.perBankRdBursts::10              149                       # Per bank write bursts
system.mem_cntrl.perBankRdBursts::11              120                       # Per bank write bursts
system.mem_cntrl.perBankRdBursts::12               94                       # Per bank write bursts
system.mem_cntrl.perBankRdBursts::13               82                       # Per bank write bursts
system.mem_cntrl.perBankRdBursts::14              105                       # Per bank write bursts
system.mem_cntrl.perBankRdBursts::15               71                       # Per bank write bursts
system.mem_cntrl.perBankWrBursts::0                34                       # Per bank write bursts
system.mem_cntrl.perBankWrBursts::1                39                       # Per bank write bursts
system.mem_cntrl.perBankWrBursts::2                 6                       # Per bank write bursts
system.mem_cntrl.perBankWrBursts::3                13                       # Per bank write bursts
system.mem_cntrl.perBankWrBursts::4                 7                       # Per bank write bursts
system.mem_cntrl.perBankWrBursts::5                40                       # Per bank write bursts
system.mem_cntrl.perBankWrBursts::6                12                       # Per bank write bursts
system.mem_cntrl.perBankWrBursts::7                28                       # Per bank write bursts
system.mem_cntrl.perBankWrBursts::8                 8                       # Per bank write bursts
system.mem_cntrl.perBankWrBursts::9                60                       # Per bank write bursts
system.mem_cntrl.perBankWrBursts::10               33                       # Per bank write bursts
system.mem_cntrl.perBankWrBursts::11               27                       # Per bank write bursts
system.mem_cntrl.perBankWrBursts::12               12                       # Per bank write bursts
system.mem_cntrl.perBankWrBursts::13               32                       # Per bank write bursts
system.mem_cntrl.perBankWrBursts::14               25                       # Per bank write bursts
system.mem_cntrl.perBankWrBursts::15               19                       # Per bank write bursts
system.mem_cntrl.numRdRetry                         0                       # Number of times read queue was full causing retry
system.mem_cntrl.numWrRetry                         0                       # Number of times write queue was full causing retry
system.mem_cntrl.totGap                    1221368000                       # Total gap between requests
system.mem_cntrl.readPktSize::0                     0                       # Read request sizes (log2)
system.mem_cntrl.readPktSize::1                     0                       # Read request sizes (log2)
system.mem_cntrl.readPktSize::2                     0                       # Read request sizes (log2)
system.mem_cntrl.readPktSize::3                  2085                       # Read request sizes (log2)
system.mem_cntrl.readPktSize::4                     0                       # Read request sizes (log2)
system.mem_cntrl.readPktSize::5                     0                       # Read request sizes (log2)
system.mem_cntrl.readPktSize::6                  1076                       # Read request sizes (log2)
system.mem_cntrl.writePktSize::0                    0                       # Write request sizes (log2)
system.mem_cntrl.writePktSize::1                    0                       # Write request sizes (log2)
system.mem_cntrl.writePktSize::2                    0                       # Write request sizes (log2)
system.mem_cntrl.writePktSize::3                    0                       # Write request sizes (log2)
system.mem_cntrl.writePktSize::4                    0                       # Write request sizes (log2)
system.mem_cntrl.writePktSize::5                    0                       # Write request sizes (log2)
system.mem_cntrl.writePktSize::6                  399                       # Write request sizes (log2)
system.mem_cntrl.rdQLenPdf::0                    2950                       # What read queue length does an incoming req see
system.mem_cntrl.rdQLenPdf::1                     177                       # What read queue length does an incoming req see
system.mem_cntrl.rdQLenPdf::2                      27                       # What read queue length does an incoming req see
system.mem_cntrl.rdQLenPdf::3                       2                       # What read queue length does an incoming req see
system.mem_cntrl.rdQLenPdf::4                       0                       # What read queue length does an incoming req see
system.mem_cntrl.rdQLenPdf::5                       0                       # What read queue length does an incoming req see
system.mem_cntrl.rdQLenPdf::6                       0                       # What read queue length does an incoming req see
system.mem_cntrl.rdQLenPdf::7                       0                       # What read queue length does an incoming req see
system.mem_cntrl.rdQLenPdf::8                       0                       # What read queue length does an incoming req see
system.mem_cntrl.rdQLenPdf::9                       0                       # What read queue length does an incoming req see
system.mem_cntrl.rdQLenPdf::10                      0                       # What read queue length does an incoming req see
system.mem_cntrl.rdQLenPdf::11                      0                       # What read queue length does an incoming req see
system.mem_cntrl.rdQLenPdf::12                      0                       # What read queue length does an incoming req see
system.mem_cntrl.rdQLenPdf::13                      0                       # What read queue length does an incoming req see
system.mem_cntrl.rdQLenPdf::14                      0                       # What read queue length does an incoming req see
system.mem_cntrl.rdQLenPdf::15                      0                       # What read queue length does an incoming req see
system.mem_cntrl.rdQLenPdf::16                      0                       # What read queue length does an incoming req see
system.mem_cntrl.rdQLenPdf::17                      0                       # What read queue length does an incoming req see
system.mem_cntrl.rdQLenPdf::18                      0                       # What read queue length does an incoming req see
system.mem_cntrl.rdQLenPdf::19                      0                       # What read queue length does an incoming req see
system.mem_cntrl.rdQLenPdf::20                      0                       # What read queue length does an incoming req see
system.mem_cntrl.rdQLenPdf::21                      0                       # What read queue length does an incoming req see
system.mem_cntrl.rdQLenPdf::22                      0                       # What read queue length does an incoming req see
system.mem_cntrl.rdQLenPdf::23                      0                       # What read queue length does an incoming req see
system.mem_cntrl.rdQLenPdf::24                      0                       # What read queue length does an incoming req see
system.mem_cntrl.rdQLenPdf::25                      0                       # What read queue length does an incoming req see
system.mem_cntrl.rdQLenPdf::26                      0                       # What read queue length does an incoming req see
system.mem_cntrl.rdQLenPdf::27                      0                       # What read queue length does an incoming req see
system.mem_cntrl.rdQLenPdf::28                      0                       # What read queue length does an incoming req see
system.mem_cntrl.rdQLenPdf::29                      0                       # What read queue length does an incoming req see
system.mem_cntrl.rdQLenPdf::30                      0                       # What read queue length does an incoming req see
system.mem_cntrl.rdQLenPdf::31                      0                       # What read queue length does an incoming req see
system.mem_cntrl.wrQLenPdf::0                       0                       # What write queue length does an incoming req see
system.mem_cntrl.wrQLenPdf::1                       0                       # What write queue length does an incoming req see
system.mem_cntrl.wrQLenPdf::2                       0                       # What write queue length does an incoming req see
system.mem_cntrl.wrQLenPdf::3                       0                       # What write queue length does an incoming req see
system.mem_cntrl.wrQLenPdf::4                       0                       # What write queue length does an incoming req see
system.mem_cntrl.wrQLenPdf::5                       0                       # What write queue length does an incoming req see
system.mem_cntrl.wrQLenPdf::6                       0                       # What write queue length does an incoming req see
system.mem_cntrl.wrQLenPdf::7                       0                       # What write queue length does an incoming req see
system.mem_cntrl.wrQLenPdf::8                       0                       # What write queue length does an incoming req see
system.mem_cntrl.wrQLenPdf::9                       0                       # What write queue length does an incoming req see
system.mem_cntrl.wrQLenPdf::10                      0                       # What write queue length does an incoming req see
system.mem_cntrl.wrQLenPdf::11                      0                       # What write queue length does an incoming req see
system.mem_cntrl.wrQLenPdf::12                      0                       # What write queue length does an incoming req see
system.mem_cntrl.wrQLenPdf::13                      0                       # What write queue length does an incoming req see
system.mem_cntrl.wrQLenPdf::14                      0                       # What write queue length does an incoming req see
system.mem_cntrl.wrQLenPdf::15                      5                       # What write queue length does an incoming req see
system.mem_cntrl.wrQLenPdf::16                      5                       # What write queue length does an incoming req see
system.mem_cntrl.wrQLenPdf::17                     23                       # What write queue length does an incoming req see
system.mem_cntrl.wrQLenPdf::18                     24                       # What write queue length does an incoming req see
system.mem_cntrl.wrQLenPdf::19                     24                       # What write queue length does an incoming req see
system.mem_cntrl.wrQLenPdf::20                     24                       # What write queue length does an incoming req see
system.mem_cntrl.wrQLenPdf::21                     24                       # What write queue length does an incoming req see
system.mem_cntrl.wrQLenPdf::22                     24                       # What write queue length does an incoming req see
system.mem_cntrl.wrQLenPdf::23                     24                       # What write queue length does an incoming req see
system.mem_cntrl.wrQLenPdf::24                     24                       # What write queue length does an incoming req see
system.mem_cntrl.wrQLenPdf::25                     24                       # What write queue length does an incoming req see
system.mem_cntrl.wrQLenPdf::26                     25                       # What write queue length does an incoming req see
system.mem_cntrl.wrQLenPdf::27                     25                       # What write queue length does an incoming req see
system.mem_cntrl.wrQLenPdf::28                     25                       # What write queue length does an incoming req see
system.mem_cntrl.wrQLenPdf::29                     26                       # What write queue length does an incoming req see
system.mem_cntrl.wrQLenPdf::30                     25                       # What write queue length does an incoming req see
system.mem_cntrl.wrQLenPdf::31                     24                       # What write queue length does an incoming req see
system.mem_cntrl.wrQLenPdf::32                     24                       # What write queue length does an incoming req see
system.mem_cntrl.wrQLenPdf::33                      0                       # What write queue length does an incoming req see
system.mem_cntrl.wrQLenPdf::34                      0                       # What write queue length does an incoming req see
system.mem_cntrl.wrQLenPdf::35                      0                       # What write queue length does an incoming req see
system.mem_cntrl.wrQLenPdf::36                      0                       # What write queue length does an incoming req see
system.mem_cntrl.wrQLenPdf::37                      0                       # What write queue length does an incoming req see
system.mem_cntrl.wrQLenPdf::38                      0                       # What write queue length does an incoming req see
system.mem_cntrl.wrQLenPdf::39                      0                       # What write queue length does an incoming req see
system.mem_cntrl.wrQLenPdf::40                      0                       # What write queue length does an incoming req see
system.mem_cntrl.wrQLenPdf::41                      0                       # What write queue length does an incoming req see
system.mem_cntrl.wrQLenPdf::42                      0                       # What write queue length does an incoming req see
system.mem_cntrl.wrQLenPdf::43                      0                       # What write queue length does an incoming req see
system.mem_cntrl.wrQLenPdf::44                      0                       # What write queue length does an incoming req see
system.mem_cntrl.wrQLenPdf::45                      0                       # What write queue length does an incoming req see
system.mem_cntrl.wrQLenPdf::46                      0                       # What write queue length does an incoming req see
system.mem_cntrl.wrQLenPdf::47                      0                       # What write queue length does an incoming req see
system.mem_cntrl.wrQLenPdf::48                      0                       # What write queue length does an incoming req see
system.mem_cntrl.wrQLenPdf::49                      0                       # What write queue length does an incoming req see
system.mem_cntrl.wrQLenPdf::50                      0                       # What write queue length does an incoming req see
system.mem_cntrl.wrQLenPdf::51                      0                       # What write queue length does an incoming req see
system.mem_cntrl.wrQLenPdf::52                      0                       # What write queue length does an incoming req see
system.mem_cntrl.wrQLenPdf::53                      0                       # What write queue length does an incoming req see
system.mem_cntrl.wrQLenPdf::54                      0                       # What write queue length does an incoming req see
system.mem_cntrl.wrQLenPdf::55                      0                       # What write queue length does an incoming req see
system.mem_cntrl.wrQLenPdf::56                      0                       # What write queue length does an incoming req see
system.mem_cntrl.wrQLenPdf::57                      0                       # What write queue length does an incoming req see
system.mem_cntrl.wrQLenPdf::58                      0                       # What write queue length does an incoming req see
system.mem_cntrl.wrQLenPdf::59                      0                       # What write queue length does an incoming req see
system.mem_cntrl.wrQLenPdf::60                      0                       # What write queue length does an incoming req see
system.mem_cntrl.wrQLenPdf::61                      0                       # What write queue length does an incoming req see
system.mem_cntrl.wrQLenPdf::62                      0                       # What write queue length does an incoming req see
system.mem_cntrl.wrQLenPdf::63                      0                       # What write queue length does an incoming req see
system.mem_cntrl.bytesPerActivate::samples         1047                       # Bytes accessed per row activation
system.mem_cntrl.bytesPerActivate::mean    217.734479                       # Bytes accessed per row activation
system.mem_cntrl.bytesPerActivate::gmean   136.370841                       # Bytes accessed per row activation
system.mem_cntrl.bytesPerActivate::stdev   258.781943                       # Bytes accessed per row activation
system.mem_cntrl.bytesPerActivate::0-127          490     46.80%     46.80% # Bytes accessed per row activation
system.mem_cntrl.bytesPerActivate::128-255          282     26.93%     73.73% # Bytes accessed per row activation
system.mem_cntrl.bytesPerActivate::256-383           93      8.88%     82.62% # Bytes accessed per row activation
system.mem_cntrl.bytesPerActivate::384-511           56      5.35%     87.97% # Bytes accessed per row activation
system.mem_cntrl.bytesPerActivate::512-639           29      2.77%     90.74% # Bytes accessed per row activation
system.mem_cntrl.bytesPerActivate::640-767           13      1.24%     91.98% # Bytes accessed per row activation
system.mem_cntrl.bytesPerActivate::768-895           12      1.15%     93.12% # Bytes accessed per row activation
system.mem_cntrl.bytesPerActivate::896-1023           12      1.15%     94.27% # Bytes accessed per row activation
system.mem_cntrl.bytesPerActivate::1024-1151           60      5.73%    100.00% # Bytes accessed per row activation
system.mem_cntrl.bytesPerActivate::total         1047                       # Bytes accessed per row activation
system.mem_cntrl.rdPerTurnAround::samples           24                       # Reads before turning the bus around for writes
system.mem_cntrl.rdPerTurnAround::mean     112.750000                       # Reads before turning the bus around for writes
system.mem_cntrl.rdPerTurnAround::gmean     88.335528                       # Reads before turning the bus around for writes
system.mem_cntrl.rdPerTurnAround::stdev     85.288385                       # Reads before turning the bus around for writes
system.mem_cntrl.rdPerTurnAround::16-31             1      4.17%      4.17% # Reads before turning the bus around for writes
system.mem_cntrl.rdPerTurnAround::32-47             3     12.50%     16.67% # Reads before turning the bus around for writes
system.mem_cntrl.rdPerTurnAround::48-63             4     16.67%     33.33% # Reads before turning the bus around for writes
system.mem_cntrl.rdPerTurnAround::64-79             4     16.67%     50.00% # Reads before turning the bus around for writes
system.mem_cntrl.rdPerTurnAround::80-95             1      4.17%     54.17% # Reads before turning the bus around for writes
system.mem_cntrl.rdPerTurnAround::96-111            3     12.50%     66.67% # Reads before turning the bus around for writes
system.mem_cntrl.rdPerTurnAround::128-143            1      4.17%     70.83% # Reads before turning the bus around for writes
system.mem_cntrl.rdPerTurnAround::144-159            3     12.50%     83.33% # Reads before turning the bus around for writes
system.mem_cntrl.rdPerTurnAround::224-239            1      4.17%     87.50% # Reads before turning the bus around for writes
system.mem_cntrl.rdPerTurnAround::240-255            1      4.17%     91.67% # Reads before turning the bus around for writes
system.mem_cntrl.rdPerTurnAround::256-271            1      4.17%     95.83% # Reads before turning the bus around for writes
system.mem_cntrl.rdPerTurnAround::352-367            1      4.17%    100.00% # Reads before turning the bus around for writes
system.mem_cntrl.rdPerTurnAround::total            24                       # Reads before turning the bus around for writes
system.mem_cntrl.wrPerTurnAround::samples           24                       # Writes before turning the bus around for reads
system.mem_cntrl.wrPerTurnAround::mean      16.458333                       # Writes before turning the bus around for reads
system.mem_cntrl.wrPerTurnAround::gmean     16.438940                       # Writes before turning the bus around for reads
system.mem_cntrl.wrPerTurnAround::stdev      0.832971                       # Writes before turning the bus around for reads
system.mem_cntrl.wrPerTurnAround::16               18     75.00%     75.00% # Writes before turning the bus around for reads
system.mem_cntrl.wrPerTurnAround::17                1      4.17%     79.17% # Writes before turning the bus around for reads
system.mem_cntrl.wrPerTurnAround::18                5     20.83%    100.00% # Writes before turning the bus around for reads
system.mem_cntrl.wrPerTurnAround::total            24                       # Writes before turning the bus around for reads
system.mem_cntrl.totQLat                     69248000                       # Total ticks spent queuing
system.mem_cntrl.totMemAccLat               128423000                       # Total ticks spent from burst creation until serviced by the DRAM
system.mem_cntrl.totBusLat                   15780000                       # Total ticks spent in databus transfers
system.mem_cntrl.avgQLat                     21941.70                       # Average queueing delay per DRAM burst
system.mem_cntrl.avgBusLat                    5000.00                       # Average bus latency per DRAM burst
system.mem_cntrl.avgMemAccLat                40691.70                       # Average memory access latency per DRAM burst
system.mem_cntrl.avgRdBW                       165.06                       # Average DRAM read bandwidth in MiByte/s
system.mem_cntrl.avgWrBW                        20.66                       # Average achieved write bandwidth in MiByte/s
system.mem_cntrl.avgRdBWSys                     69.91                       # Average system read bandwidth in MiByte/s
system.mem_cntrl.avgWrBWSys                     20.87                       # Average system write bandwidth in MiByte/s
system.mem_cntrl.peakBW                      12800.00                       # Theoretical peak bandwidth in MiByte/s
system.mem_cntrl.busUtil                         1.45                       # Data bus utilization in percentage
system.mem_cntrl.busUtilRead                     1.29                       # Data bus utilization in percentage for reads
system.mem_cntrl.busUtilWrite                    0.16                       # Data bus utilization in percentage for writes
system.mem_cntrl.avgRdQLen                       1.05                       # Average read queue length when enqueuing
system.mem_cntrl.avgWrQLen                      25.19                       # Average write queue length when enqueuing
system.mem_cntrl.readRowHits                     2339                       # Number of row buffer hits during reads
system.mem_cntrl.writeRowHits                     170                       # Number of row buffer hits during writes
system.mem_cntrl.readRowHitRate                 74.11                       # Row buffer hit rate for reads
system.mem_cntrl.writeRowHitRate                42.61                       # Row buffer hit rate for writes
system.mem_cntrl.avgGap                     343080.90                       # Average gap between requests
system.mem_cntrl.pageHitRate                    70.58                       # Row buffer hit rate, read and write combined
system.mem_cntrl_0.actEnergy                  4348260                       # Energy for activate commands per rank (pJ)
system.mem_cntrl_0.preEnergy                  2311155                       # Energy for precharge commands per rank (pJ)
system.mem_cntrl_0.readEnergy                12887700                       # Energy for read commands per rank (pJ)
system.mem_cntrl_0.writeEnergy                 934380                       # Energy for write commands per rank (pJ)
system.mem_cntrl_0.refreshEnergy         90966720.000000                       # Energy for refresh commands per rank (pJ)
system.mem_cntrl_0.actBackEnergy             51214500                       # Energy for active background per rank (pJ)
system.mem_cntrl_0.preBackEnergy              2996160                       # Energy for precharge background per rank (pJ)
system.mem_cntrl_0.actPowerDownEnergy       317675250                       # Energy for active power-down per rank (pJ)
system.mem_cntrl_0.prePowerDownEnergy        95550240                       # Energy for precharge power-down per rank (pJ)
system.mem_cntrl_0.selfRefreshEnergy         45445080                       # Energy for self refresh per rank (pJ)
system.mem_cntrl_0.totalEnergy              624367785                       # Total energy per rank (pJ)
system.mem_cntrl_0.averagePower            510.235502                       # Core power per rank (mW)
system.mem_cntrl_0.totalIdleTime           1105925000                       # Total Idle time Per DRAM Rank
system.mem_cntrl_0.memoryStateTime::IDLE      3906000                       # Time in different power states
system.mem_cntrl_0.memoryStateTime::REF      38558000                       # Time in different power states
system.mem_cntrl_0.memoryStateTime::SREF    161658500                       # Time in different power states
system.mem_cntrl_0.memoryStateTime::PRE_PDN    248835500                       # Time in different power states
system.mem_cntrl_0.memoryStateTime::ACT      77595000                       # Time in different power states
system.mem_cntrl_0.memoryStateTime::ACT_PDN    695754000                       # Time in different power states
system.mem_cntrl_1.actEnergy                  3127320                       # Energy for activate commands per rank (pJ)
system.mem_cntrl_1.preEnergy                  1662210                       # Energy for precharge commands per rank (pJ)
system.mem_cntrl_1.readEnergy                 9724680                       # Energy for read commands per rank (pJ)
system.mem_cntrl_1.writeEnergy                1127520                       # Energy for write commands per rank (pJ)
system.mem_cntrl_1.refreshEnergy         90352080.000000                       # Energy for refresh commands per rank (pJ)
system.mem_cntrl_1.actBackEnergy             39878910                       # Energy for active background per rank (pJ)
system.mem_cntrl_1.preBackEnergy              3902880                       # Energy for precharge background per rank (pJ)
system.mem_cntrl_1.actPowerDownEnergy       282862500                       # Energy for active power-down per rank (pJ)
system.mem_cntrl_1.prePowerDownEnergy       106252320                       # Energy for precharge power-down per rank (pJ)
system.mem_cntrl_1.selfRefreshEnergy         67694040                       # Energy for self refresh per rank (pJ)
system.mem_cntrl_1.totalEnergy              606584460                       # Total energy per rank (pJ)
system.mem_cntrl_1.averagePower            495.702907                       # Core power per rank (mW)
system.mem_cntrl_1.totalIdleTime           1124184000                       # Total Idle time Per DRAM Rank
system.mem_cntrl_1.memoryStateTime::IDLE      6240000                       # Time in different power states
system.mem_cntrl_1.memoryStateTime::REF      38346000                       # Time in different power states
system.mem_cntrl_1.memoryStateTime::SREF    233738750                       # Time in different power states
system.mem_cntrl_1.memoryStateTime::PRE_PDN    276622250                       # Time in different power states
system.mem_cntrl_1.memoryStateTime::ACT      52848750                       # Time in different power states
system.mem_cntrl_1.memoryStateTime::ACT_PDN    616128000                       # Time in different power states
system.pwrStateResidencyTicks::UNDEFINED 4783210735000                       # Cumulative time (in ticks) in various power states
system.apicbridge.pwrStateResidencyTicks::UNDEFINED 4783210735000                       # Cumulative time (in ticks) in various power states
system.bridge.pwrStateResidencyTicks::UNDEFINED 4783210735000                       # Cumulative time (in ticks) in various power states
system.cpu.branchPred.lookups                  439300                       # Number of BP lookups
system.cpu.branchPred.condPredicted            439300                       # Number of conditional branches predicted
system.cpu.branchPred.condIncorrect             50686                       # Number of conditional branches incorrect
system.cpu.branchPred.BTBLookups               384510                       # Number of BTB lookups
system.cpu.branchPred.BTBHits                       0                       # Number of BTB hits
system.cpu.branchPred.BTBCorrect                    0                       # Number of correct BTB predictions (this stat may not work properly.
system.cpu.branchPred.BTBHitPct              0.000000                       # BTB Hit Percentage
system.cpu.branchPred.usedRAS                   45089                       # Number of times the RAS was used to get a target.
system.cpu.branchPred.RASInCorrect              10205                       # Number of incorrect RAS predictions.
system.cpu.branchPred.correctpredictionPercent    88.462099                       # Correct prediction percentage
system.cpu.branchPred.indirectLookups          384510                       # Number of indirect predictor lookups.
system.cpu.branchPred.indirectHits             107967                       # Number of indirect target hits.
system.cpu.branchPred.indirectMisses           276543                       # Number of indirect misses.
system.cpu.branchPredindirectMispredicted        35815                       # Number of mispredicted indirect branches.
system.cpu.dtb.walker.pwrStateResidencyTicks::UNDEFINED 4783210735000                       # Cumulative time (in ticks) in various power states
system.cpu.dtb.rdAccesses                      357002                       # TLB accesses on read requests
system.cpu.dtb.wrAccesses                      225711                       # TLB accesses on write requests
system.cpu.dtb.rdMisses                          8631                       # TLB misses on read requests
system.cpu.dtb.wrMisses                          1962                       # TLB misses on write requests
system.cpu.apic_clk_domain.clock                 8000                       # Clock period in ticks
system.cpu.interrupts.pwrStateResidencyTicks::UNDEFINED 4783210735000                       # Cumulative time (in ticks) in various power states
system.cpu.itb.walker.pwrStateResidencyTicks::UNDEFINED 4783210735000                       # Cumulative time (in ticks) in various power states
system.cpu.itb.rdAccesses                           0                       # TLB accesses on read requests
system.cpu.itb.wrAccesses                      281206                       # TLB accesses on write requests
system.cpu.itb.rdMisses                             0                       # TLB misses on read requests
system.cpu.itb.wrMisses                          1389                       # TLB misses on write requests
system.cpu.pwrStateResidencyTicks::ON      2488566500                       # Cumulative time (in ticks) in various power states
system.cpu.numCycles                          2447371                       # number of cpu cycles simulated
system.cpu.numWorkItemsStarted                      0                       # number of work items this cpu started
system.cpu.numWorkItemsCompleted                    0                       # number of work items this cpu completed
system.cpu.fetch.icacheStallCycles             572352                       # Number of cycles fetch is stalled on an Icache miss
system.cpu.fetch.Insts                        1998497                       # Number of instructions fetch has processed
system.cpu.fetch.Branches                      439300                       # Number of branches that fetch encountered
system.cpu.fetch.predictedBranches             153056                       # Number of branches that fetch has predicted taken
system.cpu.fetch.Cycles                       1581221                       # Number of cycles fetch has run and was not squashing or blocked
system.cpu.fetch.SquashCycles                  110380                       # Number of cycles fetch has spent squashing
system.cpu.fetch.TlbCycles                      49283                       # Number of cycles fetch has spent waiting for tlb
system.cpu.fetch.MiscStallCycles                 1651                       # Number of cycles fetch has spent waiting on interrupts, or bad addresses, or out of MSHRs
system.cpu.fetch.PendingTrapStallCycles         39081                       # Number of stall cycles due to pending traps
system.cpu.fetch.PendingQuiesceStallCycles           18                       # Number of stall cycles due to pending quiesce instructions
system.cpu.fetch.IcacheWaitRetryStallCycles           53                       # Number of stall cycles due to full MSHR
system.cpu.fetch.CacheLines                    275419                       # Number of cache lines fetched
system.cpu.fetch.IcacheSquashes                 20018                       # Number of outstanding Icache misses that were squashed
system.cpu.fetch.ItlbSquashes                     693                       # Number of outstanding ITLB misses that were squashed
system.cpu.fetch.rateDist::samples            2298849                       # Number of instructions fetched each cycle (Total)
system.cpu.fetch.rateDist::mean              1.712313                       # Number of instructions fetched each cycle (Total)
system.cpu.fetch.rateDist::stdev             3.073142                       # Number of instructions fetched each cycle (Total)
system.cpu.fetch.rateDist::underflows               0      0.00%      0.00% # Number of instructions fetched each cycle (Total)
system.cpu.fetch.rateDist::0                  1666962     72.51%     72.51% # Number of instructions fetched each cycle (Total)
system.cpu.fetch.rateDist::1                    57251      2.49%     75.00% # Number of instructions fetched each cycle (Total)
system.cpu.fetch.rateDist::2                    30518      1.33%     76.33% # Number of instructions fetched each cycle (Total)
system.cpu.fetch.rateDist::3                    38388      1.67%     78.00% # Number of instructions fetched each cycle (Total)
system.cpu.fetch.rateDist::4                    36455      1.59%     79.59% # Number of instructions fetched each cycle (Total)
system.cpu.fetch.rateDist::5                    33320      1.45%     81.04% # Number of instructions fetched each cycle (Total)
system.cpu.fetch.rateDist::6                    33129      1.44%     82.48% # Number of instructions fetched each cycle (Total)
system.cpu.fetch.rateDist::7                    30904      1.34%     83.82% # Number of instructions fetched each cycle (Total)
system.cpu.fetch.rateDist::8                   371922     16.18%    100.00% # Number of instructions fetched each cycle (Total)
system.cpu.fetch.rateDist::overflows                0      0.00%    100.00% # Number of instructions fetched each cycle (Total)
system.cpu.fetch.rateDist::min_value                0                       # Number of instructions fetched each cycle (Total)
system.cpu.fetch.rateDist::max_value                8                       # Number of instructions fetched each cycle (Total)
system.cpu.fetch.rateDist::total              2298849                       # Number of instructions fetched each cycle (Total)
system.cpu.fetch.branchRate                  0.179499                       # Number of branch fetches per cycle
system.cpu.fetch.rate                        0.816589                       # Number of inst fetches per cycle
system.cpu.decode.IdleCycles                   539291                       # Number of cycles decode is idle
system.cpu.decode.BlockedCycles               1184500                       # Number of cycles decode is blocked
system.cpu.decode.RunCycles                    453532                       # Number of cycles decode is running
system.cpu.decode.UnblockCycles                 66336                       # Number of cycles decode is unblocking
system.cpu.decode.SquashCycles                  55190                       # Number of cycles decode is squashing
system.cpu.decode.DecodedInsts                3533203                       # Number of instructions handled by decode
system.cpu.rename.SquashCycles                  55190                       # Number of cycles rename is squashing
system.cpu.rename.IdleCycles                   581861                       # Number of cycles rename is idle
system.cpu.rename.BlockCycles                  536351                       # Number of cycles rename is blocking
system.cpu.rename.serializeStallCycles         363864                       # count of cycles rename stalled for serializing inst
system.cpu.rename.RunCycles                    473167                       # Number of cycles rename is running
system.cpu.rename.UnblockCycles                288416                       # Number of cycles rename is unblocking
system.cpu.rename.RenamedInsts                3312288                       # Number of instructions processed by rename
system.cpu.rename.ROBFullEvents                  3287                       # Number of times rename has blocked due to ROB full
system.cpu.rename.IQFullEvents                  27181                       # Number of times rename has blocked due to IQ full
system.cpu.rename.LQFullEvents                  21631                       # Number of times rename has blocked due to LQ full
system.cpu.rename.SQFullEvents                 220330                       # Number of times rename has blocked due to SQ full
system.cpu.rename.RenamedOperands             3639258                       # Number of destination operands rename has renamed
system.cpu.rename.RenameLookups               8313390                       # Number of register rename lookups that rename has made
system.cpu.rename.int_rename_lookups          5122621                       # Number of integer rename lookups
system.cpu.rename.fp_rename_lookups             12341                       # Number of floating rename lookups
system.cpu.rename.CommittedMaps               1950159                       # Number of HB maps that are committed
system.cpu.rename.UndoneMaps                  1689086                       # Number of HB maps that are undone due to squashing
system.cpu.rename.serializingInsts              14182                       # count of serializing insts renamed
system.cpu.rename.tempSerializingInsts          14196                       # count of temporary serializing insts renamed
system.cpu.rename.skidInsts                    279742                       # count of insts added to the skid buffer
system.cpu.memDep0.insertedLoads               434760                       # Number of loads inserted to the mem dependence unit.
system.cpu.memDep0.insertedStores              276006                       # Number of stores inserted to the mem dependence unit.
system.cpu.memDep0.conflictingLoads             32931                       # Number of conflicting loads.
system.cpu.memDep0.conflictingStores            32665                       # Number of conflicting stores.
system.cpu.iq.iqInstsAdded                    2943045                       # Number of instructions added to the IQ (excludes non-spec)
system.cpu.iq.iqNonSpecInstsAdded               16767                       # Number of non-speculative instructions added to the IQ
system.cpu.iq.iqInstsIssued                   2543899                       # Number of instructions issued
system.cpu.iq.iqSquashedInstsIssued             19509                       # Number of squashed instructions issued
system.cpu.iq.iqSquashedInstsExamined         1211173                       # Number of squashed instructions iterated over during squash; mainly for profiling
system.cpu.iq.iqSquashedOperandsExamined      1755098                       # Number of squashed operands that are examined and possibly removed from graph
system.cpu.iq.iqSquashedNonSpecRemoved           5128                       # Number of squashed non-spec instructions that were removed
system.cpu.iq.issued_per_cycle::samples       2298849                       # Number of insts issued each cycle
system.cpu.iq.issued_per_cycle::mean         1.106597                       # Number of insts issued each cycle
system.cpu.iq.issued_per_cycle::stdev        1.986373                       # Number of insts issued each cycle
system.cpu.iq.issued_per_cycle::underflows            0      0.00%      0.00% # Number of insts issued each cycle
system.cpu.iq.issued_per_cycle::0             1548553     67.36%     67.36% # Number of insts issued each cycle
system.cpu.iq.issued_per_cycle::1              191440      8.33%     75.69% # Number of insts issued each cycle
system.cpu.iq.issued_per_cycle::2              127340      5.54%     81.23% # Number of insts issued each cycle
system.cpu.iq.issued_per_cycle::3              103757      4.51%     85.74% # Number of insts issued each cycle
system.cpu.iq.issued_per_cycle::4               95333      4.15%     89.89% # Number of insts issued each cycle
system.cpu.iq.issued_per_cycle::5               84959      3.70%     93.59% # Number of insts issued each cycle
system.cpu.iq.issued_per_cycle::6               77053      3.35%     96.94% # Number of insts issued each cycle
system.cpu.iq.issued_per_cycle::7               45249      1.97%     98.91% # Number of insts issued each cycle
system.cpu.iq.issued_per_cycle::8               25165      1.09%    100.00% # Number of insts issued each cycle
system.cpu.iq.issued_per_cycle::overflows            0      0.00%    100.00% # Number of insts issued each cycle
system.cpu.iq.issued_per_cycle::min_value            0                       # Number of insts issued each cycle
system.cpu.iq.issued_per_cycle::max_value            8                       # Number of insts issued each cycle
system.cpu.iq.issued_per_cycle::total         2298849                       # Number of insts issued each cycle
system.cpu.iq.fu_full::No_OpClass                   0      0.00%      0.00% # attempts to use FU when none available
system.cpu.iq.fu_full::IntAlu                   24819     66.21%     66.21% # attempts to use FU when none available
system.cpu.iq.fu_full::IntMult                      0      0.00%     66.21% # attempts to use FU when none available
system.cpu.iq.fu_full::IntDiv                       0      0.00%     66.21% # attempts to use FU when none available
system.cpu.iq.fu_full::FloatAdd                    51      0.14%     66.35% # attempts to use FU when none available
system.cpu.iq.fu_full::FloatCmp                     0      0.00%     66.35% # attempts to use FU when none available
system.cpu.iq.fu_full::FloatCvt                     0      0.00%     66.35% # attempts to use FU when none available
system.cpu.iq.fu_full::FloatMult                    0      0.00%     66.35% # attempts to use FU when none available
system.cpu.iq.fu_full::FloatMultAcc                 0      0.00%     66.35% # attempts to use FU when none available
system.cpu.iq.fu_full::FloatDiv                     0      0.00%     66.35% # attempts to use FU when none available
system.cpu.iq.fu_full::FloatMisc                    0      0.00%     66.35% # attempts to use FU when none available
system.cpu.iq.fu_full::FloatSqrt                    0      0.00%     66.35% # attempts to use FU when none available
system.cpu.iq.fu_full::SimdAdd                      0      0.00%     66.35% # attempts to use FU when none available
system.cpu.iq.fu_full::SimdAddAcc                   0      0.00%     66.35% # attempts to use FU when none available
system.cpu.iq.fu_full::SimdAlu                      0      0.00%     66.35% # attempts to use FU when none available
system.cpu.iq.fu_full::SimdCmp                      0      0.00%     66.35% # attempts to use FU when none available
system.cpu.iq.fu_full::SimdCvt                      0      0.00%     66.35% # attempts to use FU when none available
system.cpu.iq.fu_full::SimdMisc                     0      0.00%     66.35% # attempts to use FU when none available
system.cpu.iq.fu_full::SimdMult                     0      0.00%     66.35% # attempts to use FU when none available
system.cpu.iq.fu_full::SimdMultAcc                  0      0.00%     66.35% # attempts to use FU when none available
system.cpu.iq.fu_full::SimdShift                    0      0.00%     66.35% # attempts to use FU when none available
system.cpu.iq.fu_full::SimdShiftAcc                 0      0.00%     66.35% # attempts to use FU when none available
system.cpu.iq.fu_full::SimdSqrt                     0      0.00%     66.35% # attempts to use FU when none available
system.cpu.iq.fu_full::SimdFloatAdd                 0      0.00%     66.35% # attempts to use FU when none available
system.cpu.iq.fu_full::SimdFloatAlu                 0      0.00%     66.35% # attempts to use FU when none available
system.cpu.iq.fu_full::SimdFloatCmp                 0      0.00%     66.35% # attempts to use FU when none available
system.cpu.iq.fu_full::SimdFloatCvt                 0      0.00%     66.35% # attempts to use FU when none available
system.cpu.iq.fu_full::SimdFloatDiv                 0      0.00%     66.35% # attempts to use FU when none available
system.cpu.iq.fu_full::SimdFloatMisc                0      0.00%     66.35% # attempts to use FU when none available
system.cpu.iq.fu_full::SimdFloatMult                0      0.00%     66.35% # attempts to use FU when none available
system.cpu.iq.fu_full::SimdFloatMultAcc             0      0.00%     66.35% # attempts to use FU when none available
system.cpu.iq.fu_full::SimdFloatSqrt                0      0.00%     66.35% # attempts to use FU when none available
system.cpu.iq.fu_full::MemRead                   8897     23.74%     90.09% # attempts to use FU when none available
system.cpu.iq.fu_full::MemWrite                  3671      9.79%     99.88% # attempts to use FU when none available
system.cpu.iq.fu_full::FloatMemRead                19      0.05%     99.93% # attempts to use FU when none available
system.cpu.iq.fu_full::FloatMemWrite               26      0.07%    100.00% # attempts to use FU when none available
system.cpu.iq.fu_full::IprAccess                    0      0.00%    100.00% # attempts to use FU when none available
system.cpu.iq.fu_full::InstPrefetch                 0      0.00%    100.00% # attempts to use FU when none available
system.cpu.iq.FU_type_0::No_OpClass             33976      1.34%      1.34% # Type of FU issued
system.cpu.iq.FU_type_0::IntAlu               1889397     74.27%     75.61% # Type of FU issued
system.cpu.iq.FU_type_0::IntMult                 1431      0.06%     75.66% # Type of FU issued
system.cpu.iq.FU_type_0::IntDiv                  1877      0.07%     75.74% # Type of FU issued
system.cpu.iq.FU_type_0::FloatAdd                3144      0.12%     75.86% # Type of FU issued
system.cpu.iq.FU_type_0::FloatCmp                   0      0.00%     75.86% # Type of FU issued
system.cpu.iq.FU_type_0::FloatCvt                   0      0.00%     75.86% # Type of FU issued
system.cpu.iq.FU_type_0::FloatMult                  0      0.00%     75.86% # Type of FU issued
system.cpu.iq.FU_type_0::FloatMultAcc               0      0.00%     75.86% # Type of FU issued
system.cpu.iq.FU_type_0::FloatDiv                   0      0.00%     75.86% # Type of FU issued
system.cpu.iq.FU_type_0::FloatMisc                  0      0.00%     75.86% # Type of FU issued
system.cpu.iq.FU_type_0::FloatSqrt                  0      0.00%     75.86% # Type of FU issued
system.cpu.iq.FU_type_0::SimdAdd                    0      0.00%     75.86% # Type of FU issued
system.cpu.iq.FU_type_0::SimdAddAcc                 0      0.00%     75.86% # Type of FU issued
system.cpu.iq.FU_type_0::SimdAlu                    0      0.00%     75.86% # Type of FU issued
system.cpu.iq.FU_type_0::SimdCmp                    0      0.00%     75.86% # Type of FU issued
system.cpu.iq.FU_type_0::SimdCvt                    0      0.00%     75.86% # Type of FU issued
system.cpu.iq.FU_type_0::SimdMisc                   0      0.00%     75.86% # Type of FU issued
system.cpu.iq.FU_type_0::SimdMult                   0      0.00%     75.86% # Type of FU issued
system.cpu.iq.FU_type_0::SimdMultAcc                0      0.00%     75.86% # Type of FU issued
system.cpu.iq.FU_type_0::SimdShift                  0      0.00%     75.86% # Type of FU issued
system.cpu.iq.FU_type_0::SimdShiftAcc               0      0.00%     75.86% # Type of FU issued
system.cpu.iq.FU_type_0::SimdSqrt                   0      0.00%     75.86% # Type of FU issued
system.cpu.iq.FU_type_0::SimdFloatAdd               0      0.00%     75.86% # Type of FU issued
system.cpu.iq.FU_type_0::SimdFloatAlu               0      0.00%     75.86% # Type of FU issued
system.cpu.iq.FU_type_0::SimdFloatCmp               0      0.00%     75.86% # Type of FU issued
system.cpu.iq.FU_type_0::SimdFloatCvt               0      0.00%     75.86% # Type of FU issued
system.cpu.iq.FU_type_0::SimdFloatDiv               0      0.00%     75.86% # Type of FU issued
system.cpu.iq.FU_type_0::SimdFloatMisc              0      0.00%     75.86% # Type of FU issued
system.cpu.iq.FU_type_0::SimdFloatMult              0      0.00%     75.86% # Type of FU issued
system.cpu.iq.FU_type_0::SimdFloatMultAcc            0      0.00%     75.86% # Type of FU issued
system.cpu.iq.FU_type_0::SimdFloatSqrt              0      0.00%     75.86% # Type of FU issued
system.cpu.iq.FU_type_0::MemRead               375906     14.78%     90.64% # Type of FU issued
system.cpu.iq.FU_type_0::MemWrite              236603      9.30%     99.94% # Type of FU issued
system.cpu.iq.FU_type_0::FloatMemRead            1457      0.06%    100.00% # Type of FU issued
system.cpu.iq.FU_type_0::FloatMemWrite            108      0.00%    100.00% # Type of FU issued
system.cpu.iq.FU_type_0::IprAccess                  0      0.00%    100.00% # Type of FU issued
system.cpu.iq.FU_type_0::InstPrefetch               0      0.00%    100.00% # Type of FU issued
system.cpu.iq.FU_type_0::total                2543899                       # Type of FU issued
system.cpu.iq.rate                           1.039442                       # Inst issue rate
system.cpu.iq.fu_busy_cnt                       37483                       # FU busy when requested
system.cpu.iq.fu_busy_rate                   0.014734                       # FU busy rate (busy events/executed inst)
system.cpu.iq.int_inst_queue_reads            7433581                       # Number of integer instruction queue reads
system.cpu.iq.int_inst_queue_writes           4160405                       # Number of integer instruction queue writes
system.cpu.iq.int_inst_queue_wakeup_accesses      2380821                       # Number of integer instruction queue wakeup accesses
system.cpu.iq.fp_inst_queue_reads               10058                       # Number of floating instruction queue reads
system.cpu.iq.fp_inst_queue_writes              11766                       # Number of floating instruction queue writes
system.cpu.iq.fp_inst_queue_wakeup_accesses         4217                       # Number of floating instruction queue wakeup accesses
system.cpu.iq.int_alu_accesses                2542433                       # Number of integer alu accesses
system.cpu.iq.fp_alu_accesses                    4973                       # Number of floating point alu accesses
system.cpu.iew.lsq.thread0.forwLoads            31724                       # Number of loads that had data forwarded from stores
system.cpu.iew.lsq.thread0.invAddrLoads             0                       # Number of loads ignored due to an invalid address
system.cpu.iew.lsq.thread0.squashedLoads       177685                       # Number of loads squashed
system.cpu.iew.lsq.thread0.ignoredResponses          660                       # Number of memory responses ignored because the instruction is squashed
system.cpu.iew.lsq.thread0.memOrderViolation         1223                       # Number of memory ordering violations
system.cpu.iew.lsq.thread0.squashedStores        87140                       # Number of stores squashed
system.cpu.iew.lsq.thread0.invAddrSwpfs             0                       # Number of software prefetches ignored due to an invalid address
system.cpu.iew.lsq.thread0.blockedLoads             0                       # Number of blocked loads due to partial load-store forwarding
system.cpu.iew.lsq.thread0.rescheduledLoads         1308                       # Number of loads that were rescheduled
system.cpu.iew.lsq.thread0.cacheBlocked          2232                       # Number of times an access to memory failed due to the cache being blocked
system.cpu.iew.iewIdleCycles                        0                       # Number of cycles IEW is idle
system.cpu.iew.iewSquashCycles                  55190                       # Number of cycles IEW is squashing
system.cpu.iew.iewBlockCycles                  290276                       # Number of cycles IEW is blocking
system.cpu.iew.iewUnblockCycles                127810                       # Number of cycles IEW is unblocking
system.cpu.iew.iewDispatchedInsts             2959812                       # Number of instructions dispatched to IQ
system.cpu.iew.iewDispSquashedInsts              4886                       # Number of squashed instructions skipped by dispatch
system.cpu.iew.iewDispLoadInsts                434760                       # Number of dispatched load instructions
system.cpu.iew.iewDispStoreInsts               276006                       # Number of dispatched store instructions
system.cpu.iew.iewDispNonSpecInsts              15231                       # Number of dispatched non-speculative instructions
system.cpu.iew.iewIQFullEvents                   1160                       # Number of times the IQ has become full, causing a stall
system.cpu.iew.iewLSQFullEvents                126213                       # Number of times the LSQ has become full, causing a stall
system.cpu.iew.memOrderViolationEvents           1223                       # Number of memory order violations
system.cpu.iew.predictedTakenIncorrect          16572                       # Number of branches that were predicted taken incorrectly
system.cpu.iew.predictedNotTakenIncorrect        51577                       # Number of branches that were predicted not taken incorrectly
system.cpu.iew.branchMispredicts                68149                       # Number of branch mispredicts detected at execute
system.cpu.iew.iewExecutedInsts               2429976                       # Number of executed instructions
system.cpu.iew.iewExecLoadInsts                348327                       # Number of load instructions executed
system.cpu.iew.iewExecSquashedInsts            103444                       # Number of squashed instructions skipped in execute
system.cpu.iew.exec_swp                             0                       # number of swp insts executed
system.cpu.iew.exec_nop                             0                       # number of nop insts executed
system.cpu.iew.exec_refs                       572084                       # number of memory reference insts executed
system.cpu.iew.exec_branches                   241294                       # Number of branches executed
system.cpu.iew.exec_stores                     223757                       # Number of stores executed
system.cpu.iew.exec_rate                     0.992892                       # Inst execution rate
system.cpu.iew.wb_sent                        2401965                       # cumulative count of insts sent to commit
system.cpu.iew.wb_count                       2385038                       # cumulative count of insts written-back
system.cpu.iew.wb_producers                   1571388                       # num instructions producing a value
system.cpu.iew.wb_consumers                   2527480                       # num instructions consuming a value
system.cpu.iew.wb_rate                       0.974531                       # insts written-back per cycle
system.cpu.iew.wb_fanout                     0.621721                       # average fanout of values written-back
system.cpu.commit.commitSquashedInsts         1210072                       # The number of squashed insts skipped by commit
system.cpu.commit.commitNonSpecStalls           11639                       # The number of times commit has been forced to stall to communicate backwards
system.cpu.commit.branchMispredicts             52662                       # The number of times a branch was mispredicted
system.cpu.commit.committed_per_cycle::samples      2101369                       # Number of insts commited each cycle
system.cpu.commit.committed_per_cycle::mean     0.832138                       # Number of insts commited each cycle
system.cpu.commit.committed_per_cycle::stdev     1.907347                       # Number of insts commited each cycle
system.cpu.commit.committed_per_cycle::underflows            0      0.00%      0.00% # Number of insts commited each cycle
system.cpu.commit.committed_per_cycle::0      1569727     74.70%     74.70% # Number of insts commited each cycle
system.cpu.commit.committed_per_cycle::1       189960      9.04%     83.74% # Number of insts commited each cycle
system.cpu.commit.committed_per_cycle::2        77879      3.71%     87.45% # Number of insts commited each cycle
system.cpu.commit.committed_per_cycle::3        79576      3.79%     91.23% # Number of insts commited each cycle
system.cpu.commit.committed_per_cycle::4        44314      2.11%     93.34% # Number of insts commited each cycle
system.cpu.commit.committed_per_cycle::5        28116      1.34%     94.68% # Number of insts commited each cycle
system.cpu.commit.committed_per_cycle::6        17838      0.85%     95.53% # Number of insts commited each cycle
system.cpu.commit.committed_per_cycle::7        12354      0.59%     96.12% # Number of insts commited each cycle
system.cpu.commit.committed_per_cycle::8        81605      3.88%    100.00% # Number of insts commited each cycle
system.cpu.commit.committed_per_cycle::overflows            0      0.00%    100.00% # Number of insts commited each cycle
system.cpu.commit.committed_per_cycle::min_value            0                       # Number of insts commited each cycle
system.cpu.commit.committed_per_cycle::max_value            8                       # Number of insts commited each cycle
system.cpu.commit.committed_per_cycle::total      2101369                       # Number of insts commited each cycle
system.cpu.commit.committedInsts               933383                       # Number of instructions committed
system.cpu.commit.committedOps                1748628                       # Number of ops (including micro ops) committed
system.cpu.commit.swp_count                         0                       # Number of s/w prefetches committed
system.cpu.commit.refs                         445939                       # Number of memory references committed
system.cpu.commit.loads                        257073                       # Number of loads committed
system.cpu.commit.membars                        1114                       # Number of memory barriers committed
system.cpu.commit.branches                     187026                       # Number of branches committed
system.cpu.commit.vec_insts                         0                       # Number of committed Vector instructions.
system.cpu.commit.fp_insts                       2404                       # Number of committed floating point instructions.
system.cpu.commit.int_insts                   1730931                       # Number of committed integer instructions.
system.cpu.commit.function_calls                19833                       # Number of function calls committed.
system.cpu.commit.op_class_0::No_OpClass        14734      0.84%      0.84% # Class of committed instruction
system.cpu.commit.op_class_0::IntAlu          1283222     73.38%     74.23% # Class of committed instruction
system.cpu.commit.op_class_0::IntMult            1263      0.07%     74.30% # Class of committed instruction
system.cpu.commit.op_class_0::IntDiv             1648      0.09%     74.39% # Class of committed instruction
system.cpu.commit.op_class_0::FloatAdd           1822      0.10%     74.50% # Class of committed instruction
system.cpu.commit.op_class_0::FloatCmp              0      0.00%     74.50% # Class of committed instruction
system.cpu.commit.op_class_0::FloatCvt              0      0.00%     74.50% # Class of committed instruction
system.cpu.commit.op_class_0::FloatMult             0      0.00%     74.50% # Class of committed instruction
system.cpu.commit.op_class_0::FloatMultAcc            0      0.00%     74.50% # Class of committed instruction
system.cpu.commit.op_class_0::FloatDiv              0      0.00%     74.50% # Class of committed instruction
system.cpu.commit.op_class_0::FloatMisc             0      0.00%     74.50% # Class of committed instruction
system.cpu.commit.op_class_0::FloatSqrt             0      0.00%     74.50% # Class of committed instruction
system.cpu.commit.op_class_0::SimdAdd               0      0.00%     74.50% # Class of committed instruction
system.cpu.commit.op_class_0::SimdAddAcc            0      0.00%     74.50% # Class of committed instruction
system.cpu.commit.op_class_0::SimdAlu               0      0.00%     74.50% # Class of committed instruction
system.cpu.commit.op_class_0::SimdCmp               0      0.00%     74.50% # Class of committed instruction
system.cpu.commit.op_class_0::SimdCvt               0      0.00%     74.50% # Class of committed instruction
system.cpu.commit.op_class_0::SimdMisc              0      0.00%     74.50% # Class of committed instruction
system.cpu.commit.op_class_0::SimdMult              0      0.00%     74.50% # Class of committed instruction
system.cpu.commit.op_class_0::SimdMultAcc            0      0.00%     74.50% # Class of committed instruction
system.cpu.commit.op_class_0::SimdShift             0      0.00%     74.50% # Class of committed instruction
system.cpu.commit.op_class_0::SimdShiftAcc            0      0.00%     74.50% # Class of committed instruction
system.cpu.commit.op_class_0::SimdSqrt              0      0.00%     74.50% # Class of committed instruction
system.cpu.commit.op_class_0::SimdFloatAdd            0      0.00%     74.50% # Class of committed instruction
system.cpu.commit.op_class_0::SimdFloatAlu            0      0.00%     74.50% # Class of committed instruction
system.cpu.commit.op_class_0::SimdFloatCmp            0      0.00%     74.50% # Class of committed instruction
system.cpu.commit.op_class_0::SimdFloatCvt            0      0.00%     74.50% # Class of committed instruction
system.cpu.commit.op_class_0::SimdFloatDiv            0      0.00%     74.50% # Class of committed instruction
system.cpu.commit.op_class_0::SimdFloatMisc            0      0.00%     74.50% # Class of committed instruction
system.cpu.commit.op_class_0::SimdFloatMult            0      0.00%     74.50% # Class of committed instruction
system.cpu.commit.op_class_0::SimdFloatMultAcc            0      0.00%     74.50% # Class of committed instruction
system.cpu.commit.op_class_0::SimdFloatSqrt            0      0.00%     74.50% # Class of committed instruction
system.cpu.commit.op_class_0::MemRead          256619     14.68%     89.17% # Class of committed instruction
system.cpu.commit.op_class_0::MemWrite         188866     10.80%     99.97% # Class of committed instruction
system.cpu.commit.op_class_0::FloatMemRead          454      0.03%    100.00% # Class of committed instruction
system.cpu.commit.op_class_0::FloatMemWrite            0      0.00%    100.00% # Class of committed instruction
system.cpu.commit.op_class_0::IprAccess             0      0.00%    100.00% # Class of committed instruction
system.cpu.commit.op_class_0::InstPrefetch            0      0.00%    100.00% # Class of committed instruction
system.cpu.commit.op_class_0::total           1748628                       # Class of committed instruction
system.cpu.commit.bw_lim_events                 81605                       # number cycles where commit BW limit reached
system.cpu.rob.rob_reads                      4972913                       # The number of ROB reads
system.cpu.rob.rob_writes                     6118409                       # The number of ROB writes
system.cpu.timesIdled                            7339                       # Number of times that the entire CPU went into an idle state and unscheduled itself
system.cpu.idleCycles                          148522                       # Total number of cycles that the CPU has spent unscheduled due to idling
system.cpu.committedInsts                      933383                       # Number of Instructions Simulated
system.cpu.committedOps                       1748628                       # Number of Ops (including micro ops) Simulated
system.cpu.cpi                               2.622044                       # CPI: Cycles Per Instruction
system.cpu.cpi_total                         2.622044                       # CPI: Total CPI of All Threads
system.cpu.ipc                               0.381382                       # IPC: Instructions Per Cycle
system.cpu.ipc_total                         0.381382                       # IPC: Total IPC of All Threads
system.cpu.int_regfile_reads                  3596561                       # number of integer regfile reads
system.cpu.int_regfile_writes                 1902283                       # number of integer regfile writes
system.cpu.fp_regfile_reads                      6694                       # number of floating regfile reads
system.cpu.fp_regfile_writes                     3575                       # number of floating regfile writes
system.cpu.cc_regfile_reads                   1086430                       # number of cc regfile reads
system.cpu.cc_regfile_writes                   701767                       # number of cc regfile writes
system.cpu.misc_regfile_reads                 1100378                       # number of misc regfile reads
system.cpu.misc_regfile_writes                  13073                       # number of misc regfile writes
system.cpu.dcache.tags.pwrStateResidencyTicks::UNDEFINED 4783210735000                       # Cumulative time (in ticks) in various power states
system.cpu.dcache.tags.replacements             20831                       # number of replacements
system.cpu.dcache.tags.tagsinuse                 1024                       # Cycle average of tags in use
system.cpu.dcache.tags.total_refs              469387                       # Total number of references to valid blocks.
system.cpu.dcache.tags.sampled_refs             20831                       # Sample count of references to valid blocks.
system.cpu.dcache.tags.avg_refs             22.533100                       # Average number of references to valid blocks.
system.cpu.dcache.tags.warmup_cycle                 0                       # Cycle when the warmup percentage was hit.
system.cpu.dcache.tags.occ_blocks::cpu.data         1024                       # Average occupied blocks per requestor
system.cpu.dcache.tags.occ_percent::cpu.data            1                       # Average percentage of cache occupancy
system.cpu.dcache.tags.occ_percent::total            1                       # Average percentage of cache occupancy
system.cpu.dcache.tags.occ_task_id_blocks::1024         1024                       # Occupied blocks per task id
system.cpu.dcache.tags.age_task_id_blocks_1024::0           48                       # Occupied blocks per task id
system.cpu.dcache.tags.age_task_id_blocks_1024::1          720                       # Occupied blocks per task id
system.cpu.dcache.tags.age_task_id_blocks_1024::2          256                       # Occupied blocks per task id
system.cpu.dcache.tags.occ_task_id_percent::1024            1                       # Percentage of cache occupancy per task id
system.cpu.dcache.tags.tag_accesses           1023905                       # Number of tag accesses
system.cpu.dcache.tags.data_accesses          1023905                       # Number of data accesses
system.cpu.dcache.pwrStateResidencyTicks::UNDEFINED 4783210735000                       # Cumulative time (in ticks) in various power states
system.cpu.dcache.ReadReq_hits::cpu.data       287021                       # number of ReadReq hits
system.cpu.dcache.ReadReq_hits::total          287021                       # number of ReadReq hits
system.cpu.dcache.WriteReq_hits::cpu.data       179962                       # number of WriteReq hits
system.cpu.dcache.WriteReq_hits::total         179962                       # number of WriteReq hits
system.cpu.dcache.SoftPFReq_hits::cpu.data          566                       # number of SoftPFReq hits
system.cpu.dcache.SoftPFReq_hits::total           566                       # number of SoftPFReq hits
system.cpu.dcache.demand_hits::cpu.data        466983                       # number of demand (read+write) hits
system.cpu.dcache.demand_hits::total           466983                       # number of demand (read+write) hits
system.cpu.dcache.overall_hits::cpu.data       467549                       # number of overall hits
system.cpu.dcache.overall_hits::total          467549                       # number of overall hits
system.cpu.dcache.ReadReq_misses::cpu.data        22224                       # number of ReadReq misses
system.cpu.dcache.ReadReq_misses::total         22224                       # number of ReadReq misses
system.cpu.dcache.WriteReq_misses::cpu.data         8846                       # number of WriteReq misses
system.cpu.dcache.WriteReq_misses::total         8846                       # number of WriteReq misses
system.cpu.dcache.SoftPFReq_misses::cpu.data         2918                       # number of SoftPFReq misses
system.cpu.dcache.SoftPFReq_misses::total         2918                       # number of SoftPFReq misses
system.cpu.dcache.demand_misses::cpu.data        31070                       # number of demand (read+write) misses
system.cpu.dcache.demand_misses::total          31070                       # number of demand (read+write) misses
system.cpu.dcache.overall_misses::cpu.data        33988                       # number of overall misses
system.cpu.dcache.overall_misses::total         33988                       # number of overall misses
system.cpu.dcache.ReadReq_miss_latency::cpu.data    287049500                       # number of ReadReq miss cycles
system.cpu.dcache.ReadReq_miss_latency::total    287049500                       # number of ReadReq miss cycles
system.cpu.dcache.WriteReq_miss_latency::cpu.data    153485481                       # number of WriteReq miss cycles
system.cpu.dcache.WriteReq_miss_latency::total    153485481                       # number of WriteReq miss cycles
system.cpu.dcache.demand_miss_latency::cpu.data    440534981                       # number of demand (read+write) miss cycles
system.cpu.dcache.demand_miss_latency::total    440534981                       # number of demand (read+write) miss cycles
system.cpu.dcache.overall_miss_latency::cpu.data    440534981                       # number of overall miss cycles
[...]
system.l2cache.demand_mshr_misses::total         1446                       # number of demand (read+write) MSHR misses
system.l2cache.overall_mshr_misses::cpu.inst          491                       # number of overall MSHR misses
system.l2cache.overall_mshr_misses::cpu.data          955                       # number of overall MSHR misses
system.l2cache.overall_mshr_misses::total         1446                       # number of overall MSHR misses
system.l2cache.ReadReq_mshr_uncacheable::cpu.data          347                       # number of ReadReq MSHR uncacheable
system.l2cache.ReadReq_mshr_uncacheable::total          347                       # number of ReadReq MSHR uncacheable
system.l2cache.WriteReq_mshr_uncacheable::cpu.data          129                       # number of WriteReq MSHR uncacheable
system.l2cache.WriteReq_mshr_uncacheable::total          129                       # number of WriteReq MSHR uncacheable
system.l2cache.overall_mshr_uncacheable_misses::cpu.data          476                       # number of overall MSHR uncacheable misses
system.l2cache.overall_mshr_uncacheable_misses::total          476                       # number of overall MSHR uncacheable misses
system.l2cache.UpgradeReq_mshr_miss_latency::cpu.data     12319499                       # number of UpgradeReq MSHR miss cycles
system.l2cache.UpgradeReq_mshr_miss_latency::total     12319499                       # number of UpgradeReq MSHR miss cycles
system.l2cache.ReadExReq_mshr_miss_latency::cpu.data     40844500                       # number of ReadExReq MSHR miss cycles
system.l2cache.ReadExReq_mshr_miss_latency::total     40844500                       # number of ReadExReq MSHR miss cycles
system.l2cache.ReadSharedReq_mshr_miss_latency::cpu.inst     42190000                       # number of ReadSharedReq MSHR miss cycles
system.l2cache.ReadSharedReq_mshr_miss_latency::cpu.data     30280501                       # number of ReadSharedReq MSHR miss cycles
system.l2cache.ReadSharedReq_mshr_miss_latency::total     72470501                       # number of ReadSharedReq MSHR miss cycles
system.l2cache.demand_mshr_miss_latency::cpu.inst     42190000                       # number of demand (read+write) MSHR miss cycles
system.l2cache.demand_mshr_miss_latency::cpu.data     71125001                       # number of demand (read+write) MSHR miss cycles
system.l2cache.demand_mshr_miss_latency::total    113315001                       # number of demand (read+write) MSHR miss cycles
system.l2cache.overall_mshr_miss_latency::cpu.inst     42190000                       # number of overall MSHR miss cycles
system.l2cache.overall_mshr_miss_latency::cpu.data     71125001                       # number of overall MSHR miss cycles
system.l2cache.overall_mshr_miss_latency::total    113315001                       # number of overall MSHR miss cycles
system.l2cache.ReadReq_mshr_uncacheable_latency::cpu.data     75819500                       # number of ReadReq MSHR uncacheable cycles
system.l2cache.ReadReq_mshr_uncacheable_latency::total     75819500                       # number of ReadReq MSHR uncacheable cycles
system.l2cache.overall_mshr_uncacheable_latency::cpu.data     75819500                       # number of overall MSHR uncacheable cycles
system.l2cache.overall_mshr_uncacheable_latency::total     75819500                       # number of overall MSHR uncacheable cycles
system.l2cache.UpgradeReq_mshr_miss_rate::cpu.data     0.921654                       # mshr miss rate for UpgradeReq accesses
system.l2cache.UpgradeReq_mshr_miss_rate::total     0.921654                       # mshr miss rate for UpgradeReq accesses
system.l2cache.ReadExReq_mshr_miss_rate::cpu.data     0.053674                       # mshr miss rate for ReadExReq accesses
system.l2cache.ReadExReq_mshr_miss_rate::total     0.053674                       # mshr miss rate for ReadExReq accesses
system.l2cache.ReadSharedReq_mshr_miss_rate::cpu.inst     0.015283                       # mshr miss rate for ReadSharedReq accesses
system.l2cache.ReadSharedReq_mshr_miss_rate::cpu.data     0.012457                       # mshr miss rate for ReadSharedReq accesses
system.l2cache.ReadSharedReq_mshr_miss_rate::total     0.014201                       # mshr miss rate for ReadSharedReq accesses
system.l2cache.demand_mshr_miss_rate::cpu.inst     0.015283                       # mshr miss rate for demand accesses
system.l2cache.demand_mshr_miss_rate::cpu.data     0.028869                       # mshr miss rate for demand accesses
system.l2cache.demand_mshr_miss_rate::total     0.022175                       # mshr miss rate for demand accesses
system.l2cache.overall_mshr_miss_rate::cpu.inst     0.015283                       # mshr miss rate for overall accesses
system.l2cache.overall_mshr_miss_rate::cpu.data     0.028869                       # mshr miss rate for overall accesses
system.l2cache.overall_mshr_miss_rate::total     0.022175                       # mshr miss rate for overall accesses
system.l2cache.UpgradeReq_avg_mshr_miss_latency::cpu.data 14544.863046                       # average UpgradeReq mshr miss latency
system.l2cache.UpgradeReq_avg_mshr_miss_latency::total 14544.863046                       # average UpgradeReq mshr miss latency
system.l2cache.ReadExReq_avg_mshr_miss_latency::cpu.data 57771.570014                       # average ReadExReq mshr miss latency
system.l2cache.ReadExReq_avg_mshr_miss_latency::total 57771.570014                       # average ReadExReq mshr miss latency
system.l2cache.ReadSharedReq_avg_mshr_miss_latency::cpu.inst 85926.680244                       # average ReadSharedReq mshr miss latency
system.l2cache.ReadSharedReq_avg_mshr_miss_latency::cpu.data 122098.794355                       # average ReadSharedReq mshr miss latency
system.l2cache.ReadSharedReq_avg_mshr_miss_latency::total 98065.630582                       # average ReadSharedReq mshr miss latency
system.l2cache.demand_avg_mshr_miss_latency::cpu.inst 85926.680244                       # average overall mshr miss latency
system.l2cache.demand_avg_mshr_miss_latency::cpu.data 74476.440838                       # average overall mshr miss latency
system.l2cache.demand_avg_mshr_miss_latency::total 78364.454357                       # average overall mshr miss latency
system.l2cache.overall_avg_mshr_miss_latency::cpu.inst 85926.680244                       # average overall mshr miss latency
system.l2cache.overall_avg_mshr_miss_latency::cpu.data 74476.440838                       # average overall mshr miss latency
system.l2cache.overall_avg_mshr_miss_latency::total 78364.454357                       # average overall mshr miss latency
system.l2cache.ReadReq_avg_mshr_uncacheable_latency::cpu.data       218500                       # average ReadReq mshr uncacheable latency
system.l2cache.ReadReq_avg_mshr_uncacheable_latency::total       218500                       # average ReadReq mshr uncacheable latency
system.l2cache.overall_avg_mshr_uncacheable_latency::cpu.data 159284.663866                       # average overall mshr uncacheable latency
system.l2cache.overall_avg_mshr_uncacheable_latency::total 159284.663866                       # average overall mshr uncacheable latency
system.membus.snoop_filter.tot_requests         35937                       # Total number of requests made to the snoop filter.
system.membus.snoop_filter.hit_single_requests        34633                       # Number of requests hitting in the snoop filter with a single holder of the requested data.
system.membus.snoop_filter.hit_multi_requests            0                       # Number of requests hitting in the snoop filter with multiple (>1) holders of the requested data.
system.membus.snoop_filter.tot_snoops               0                       # Total number of snoops made to the snoop filter.
system.membus.snoop_filter.hit_single_snoops            0                       # Number of snoops hitting in the snoop filter with a single holder of the requested data.
system.membus.snoop_filter.hit_multi_snoops            0                       # Number of snoops hitting in the snoop filter with multiple (>1) holders of the requested data.
system.membus.pwrStateResidencyTicks::UNDEFINED 4783837618000                       # Cumulative time (in ticks) in various power states
system.membus.trans_dist::ReadReq               36073                       # Transaction distribution
system.membus.trans_dist::ReadResp              36812                       # Transaction distribution
system.membus.trans_dist::WriteReq                129                       # Transaction distribution
system.membus.trans_dist::WriteResp               129                       # Transaction distribution
system.membus.trans_dist::WritebackDirty          502                       # Transaction distribution
system.membus.trans_dist::CleanEvict              579                       # Transaction distribution
system.membus.trans_dist::UpgradeReq              990                       # Transaction distribution
system.membus.trans_dist::ReadExReq               565                       # Transaction distribution
system.membus.trans_dist::ReadExResp              565                       # Transaction distribution
system.membus.trans_dist::ReadSharedReq           739                       # Transaction distribution
system.membus.trans_dist::MessageReq              117                       # Transaction distribution
system.membus.trans_dist::MessageResp             117                       # Transaction distribution
system.membus.pkt_count_system.apicbridge.master::system.cpu.interrupts.int_slave          234                       # Packet count per connected master and slave (bytes)
system.membus.pkt_count_system.apicbridge.master::total          234                       # Packet count per connected master and slave (bytes)
system.membus.pkt_count_system.l2cache.mem_side::system.bridge.slave          936                       # Packet count per connected master and slave (bytes)
system.membus.pkt_count_system.l2cache.mem_side::system.mem_cntrl.port         4679                       # Packet count per connected master and slave (bytes)
system.membus.pkt_count_system.l2cache.mem_side::system.cpu.interrupts.pio           16                       # Packet count per connected master and slave (bytes)
system.membus.pkt_count_system.l2cache.mem_side::total         5631                       # Packet count per connected master and slave (bytes)
system.membus.pkt_count_system.cpu.itb.walker.port::system.mem_cntrl.port         7954                       # Packet count per connected master and slave (bytes)
system.membus.pkt_count_system.cpu.itb.walker.port::total         7954                       # Packet count per connected master and slave (bytes)
system.membus.pkt_count_system.cpu.dtb.walker.port::system.mem_cntrl.port        30985                       # Packet count per connected master and slave (bytes)
system.membus.pkt_count_system.cpu.dtb.walker.port::total        30985                       # Packet count per connected master and slave (bytes)
system.membus.pkt_count::total                  44804                       # Packet count per connected master and slave (bytes)
system.membus.pkt_size_system.apicbridge.master::system.cpu.interrupts.int_slave          468                       # Cumulative packet size per connected master and slave (bytes)
system.membus.pkt_size_system.apicbridge.master::total          468                       # Cumulative packet size per connected master and slave (bytes)
system.membus.pkt_size_system.l2cache.mem_side::system.bridge.slave          468                       # Cumulative packet size per connected master and slave (bytes)
system.membus.pkt_size_system.l2cache.mem_side::system.mem_cntrl.port       115584                       # Cumulative packet size per connected master and slave (bytes)
system.membus.pkt_size_system.l2cache.mem_side::system.cpu.interrupts.pio           32                       # Cumulative packet size per connected master and slave (bytes)
system.membus.pkt_size_system.l2cache.mem_side::total       116084                       # Cumulative packet size per connected master and slave (bytes)
system.membus.pkt_size_system.cpu.itb.walker.port::system.mem_cntrl.port          608                       # Cumulative packet size per connected master and slave (bytes)
system.membus.pkt_size_system.cpu.itb.walker.port::total          608                       # Cumulative packet size per connected master and slave (bytes)
system.membus.pkt_size_system.cpu.dtb.walker.port::system.mem_cntrl.port        25096                       # Cumulative packet size per connected master and slave (bytes)
system.membus.pkt_size_system.cpu.dtb.walker.port::total        25096                       # Cumulative packet size per connected master and slave (bytes)
system.membus.pkt_size::total                  142256                       # Cumulative packet size per connected master and slave (bytes)
system.membus.snoops                            32514                       # Total snoops (count)
system.membus.snoopTraffic                     260104                       # Total snoop traffic (bytes)
system.membus.snoop_fanout::samples             38613                       # Request fanout histogram
system.membus.snoop_fanout::mean             0.843291                       # Request fanout histogram
system.membus.snoop_fanout::stdev            0.363531                       # Request fanout histogram
system.membus.snoop_fanout::underflows              0      0.00%      0.00% # Request fanout histogram
system.membus.snoop_fanout::0                    6051     15.67%     15.67% # Request fanout histogram
system.membus.snoop_fanout::1                   32562     84.33%    100.00% # Request fanout histogram
system.membus.snoop_fanout::2                       0      0.00%    100.00% # Request fanout histogram
system.membus.snoop_fanout::overflows               0      0.00%    100.00% # Request fanout histogram
system.membus.snoop_fanout::min_value               0                       # Request fanout histogram
system.membus.snoop_fanout::max_value               1                       # Request fanout histogram
system.membus.snoop_fanout::total               38613                       # Request fanout histogram
system.membus.reqLayer0.occupancy              294500                       # Layer occupancy (ticks)
system.membus.reqLayer0.utilization               0.0                       # Layer utilization (%)
system.membus.reqLayer1.occupancy            20554499                       # Layer occupancy (ticks)
system.membus.reqLayer1.utilization               1.1                       # Layer utilization (%)
system.membus.reqLayer2.occupancy                8000                       # Layer occupancy (ticks)
system.membus.reqLayer2.utilization               0.0                       # Layer utilization (%)
system.membus.reqLayer3.occupancy              117000                       # Layer occupancy (ticks)
system.membus.reqLayer3.utilization               0.0                       # Layer utilization (%)
system.membus.respLayer1.occupancy              58500                       # Layer occupancy (ticks)
system.membus.respLayer1.utilization              0.0                       # Layer utilization (%)
system.membus.respLayer3.occupancy            3917000                       # Layer occupancy (ticks)
system.membus.respLayer3.utilization              0.2                       # Layer utilization (%)
system.membus.respLayer4.occupancy            8041694                       # Layer occupancy (ticks)
system.membus.respLayer4.utilization              0.4                       # Layer utilization (%)
system.membus.respLayer5.occupancy           28536173                       # Layer occupancy (ticks)
system.membus.respLayer5.utilization              1.5                       # Layer utilization (%)
system.membus.badaddr_responder.pwrStateResidencyTicks::UNDEFINED 4783837618000                       # Cumulative time (in ticks) in various power states
system.pc.behind_pci.pwrStateResidencyTicks::UNDEFINED 4783837618000                       # Cumulative time (in ticks) in various power states
system.pc.com_1.pwrStateResidencyTicks::UNDEFINED 4783837618000                       # Cumulative time (in ticks) in various power states
system.pc.fake_com_2.pwrStateResidencyTicks::UNDEFINED 4783837618000                       # Cumulative time (in ticks) in various power states
system.pc.fake_com_3.pwrStateResidencyTicks::UNDEFINED 4783837618000                       # Cumulative time (in ticks) in various power states
system.pc.fake_com_4.pwrStateResidencyTicks::UNDEFINED 4783837618000                       # Cumulative time (in ticks) in various power states
system.pc.fake_floppy.pwrStateResidencyTicks::UNDEFINED 4783837618000                       # Cumulative time (in ticks) in various power states
system.pc.i_dont_exist1.pwrStateResidencyTicks::UNDEFINED 4783837618000                       # Cumulative time (in ticks) in various power states
system.pc.i_dont_exist2.pwrStateResidencyTicks::UNDEFINED 4783837618000                       # Cumulative time (in ticks) in various power states
system.pc.pci_host.pwrStateResidencyTicks::UNDEFINED 4783837618000                       # Cumulative time (in ticks) in various power states
system.pc.south_bridge.cmos.pwrStateResidencyTicks::UNDEFINED 4783837618000                       # Cumulative time (in ticks) in various power states
system.pc.south_bridge.dma1.pwrStateResidencyTicks::UNDEFINED 4783837618000                       # Cumulative time (in ticks) in various power states
system.pc.south_bridge.pic2.pwrStateResidencyTicks::UNDEFINED 4783837618000                       # Cumulative time (in ticks) in various power states
system.pc.south_bridge.pic1.pwrStateResidencyTicks::UNDEFINED 4783837618000                       # Cumulative time (in ticks) in various power states
system.pc.south_bridge.io_apic.pwrStateResidencyTicks::UNDEFINED 4783837618000                       # Cumulative time (in ticks) in various power states
system.pc.south_bridge.keyboard.pwrStateResidencyTicks::UNDEFINED 4783837618000                       # Cumulative time (in ticks) in various power states
system.pc.south_bridge.pit.pwrStateResidencyTicks::UNDEFINED 4783837618000                       # Cumulative time (in ticks) in various power states
system.pc.south_bridge.speaker.pwrStateResidencyTicks::UNDEFINED 4783837618000                       # Cumulative time (in ticks) in various power states
system.pc.south_bridge.ide.disks.dma_read_full_pages            0                       # Number of full page size DMA reads (not PRD).
system.pc.south_bridge.ide.disks.dma_read_bytes            0                       # Number of bytes transfered via DMA reads (not PRD).
system.pc.south_bridge.ide.disks.dma_read_txs            0                       # Number of DMA read transactions (not PRD).
system.pc.south_bridge.ide.disks.dma_write_full_pages            0                       # Number of full page size DMA writes.
system.pc.south_bridge.ide.disks.dma_write_bytes            0                       # Number of bytes transfered via DMA writes.
system.pc.south_bridge.ide.disks.dma_write_txs            0                       # Number of DMA write transactions.
system.pc.south_bridge.ide.pwrStateResidencyTicks::UNDEFINED 4783837618000                       # Cumulative time (in ticks) in various power states
system.cpu.kern.inst.arm                            0                       # number of arm instructions executed
system.cpu.kern.inst.quiesce                        0                       # number of quiesce instructions executed

---------- End Simulation Statistics   ----------
