
---------- Begin Simulation Statistics ----------
sim_seconds                                  0.001244                       # Number of seconds simulated
sim_ticks                                  1244422500                       # Number of ticks simulated
final_tick                               4803291731000                       # Number of ticks from beginning of simulation (restored from checkpoints and never reset)
sim_freq                                 1000000000000                       # Frequency of simulated ticks
host_inst_rate                               66003990                       # Simulator instruction rate (inst/s)
host_op_rate                                154313562                       # Simulator op (including micro ops) rate (op/s)
host_tick_rate                               56151957                       # Simulator tick rate (ticks/s)
host_mem_usage                                1545852                       # Number of bytes of host memory used
host_seconds                                    22.16                       # Real time elapsed on the host
sim_insts                                  1462757268                       # Number of instructions simulated
sim_ops                                    3419846689                       # Number of ops (including micro ops) simulated
system.clk_domain.voltage_domain.voltage            1                       # Voltage in Volts
system.clk_domain.clock                           500                       # Clock period in ticks
system.mem_cntrl.pwrStateResidencyTicks::UNDEFINED 4803291731000                       # Cumulative time (in ticks) in various power states
system.mem_cntrl.bytes_read::cpu.dtb.walker        16728                       # Number of bytes read from this memory
system.mem_cntrl.bytes_read::cpu.itb.walker          416                       # Number of bytes read from this memory
system.mem_cntrl.bytes_read::cpu.inst           32704                       # Number of bytes read from this memory
system.mem_cntrl.bytes_read::cpu.data           43392                       # Number of bytes read from this memory
system.mem_cntrl.bytes_read::total              93240                       # Number of bytes read from this memory
system.mem_cntrl.bytes_inst_read::cpu.inst        32704                       # Number of instructions bytes read from this memory
system.mem_cntrl.bytes_inst_read::total         32704                       # Number of instructions bytes read from this memory
system.mem_cntrl.bytes_written::writebacks        36544                       # Number of bytes written to this memory
system.mem_cntrl.bytes_written::total           36544                       # Number of bytes written to this memory
system.mem_cntrl.num_reads::cpu.dtb.walker         2091                       # Number of read requests responded to by this memory
system.mem_cntrl.num_reads::cpu.itb.walker           52                       # Number of read requests responded to by this memory
system.mem_cntrl.num_reads::cpu.inst              511                       # Number of read requests responded to by this memory
system.mem_cntrl.num_reads::cpu.data              678                       # Number of read requests responded to by this memory
system.mem_cntrl.num_reads::total                3332                       # Number of read requests responded to by this memory
system.mem_cntrl.num_writes::writebacks           571                       # Number of write requests responded to by this memory
system.mem_cntrl.num_writes::total                571                       # Number of write requests responded to by this memory
system.mem_cntrl.bw_read::cpu.dtb.walker     13442380                       # Total read bandwidth from this memory (bytes/s)
system.mem_cntrl.bw_read::cpu.itb.walker       334292                       # Total read bandwidth from this memory (bytes/s)
system.mem_cntrl.bw_read::cpu.inst           26280463                       # Total read bandwidth from this memory (bytes/s)
system.mem_cntrl.bw_read::cpu.data           34869186                       # Total read bandwidth from this memory (bytes/s)
system.mem_cntrl.bw_read::total              74926321                       # Total read bandwidth from this memory (bytes/s)
system.mem_cntrl.bw_inst_read::cpu.inst      26280463                       # Instruction read bandwidth from this memory (bytes/s)
system.mem_cntrl.bw_inst_read::total         26280463                       # Instruction read bandwidth from this memory (bytes/s)
system.mem_cntrl.bw_write::writebacks        29366232                       # Write bandwidth from this memory (bytes/s)
system.mem_cntrl.bw_write::total             29366232                       # Write bandwidth from this memory (bytes/s)
system.mem_cntrl.bw_total::writebacks        29366232                       # Total bandwidth to/from this memory (bytes/s)
system.mem_cntrl.bw_total::cpu.dtb.walker     13442380                       # Total bandwidth to/from this memory (bytes/s)
system.mem_cntrl.bw_total::cpu.itb.walker       334292                       # Total bandwidth to/from this memory (bytes/s)
system.mem_cntrl.bw_total::cpu.inst          26280463                       # Total bandwidth to/from this memory (bytes/s)
system.mem_cntrl.bw_total::cpu.data          34869186                       # Total bandwidth to/from this memory (bytes/s)
system.mem_cntrl.bw_total::total            104292553                       # Total bandwidth to/from this memory (bytes/s)
system.mem_cntrl.readReqs                        3332                       # Number of read requests accepted
system.mem_cntrl.writeReqs                        571                       # Number of write requests accepted
system.mem_cntrl.readBursts                      3332                       # Number of DRAM read bursts, including those serviced by the write queue
system.mem_cntrl.writeBursts                      571                       # Number of DRAM write bursts, including those merged in the write queue
system.mem_cntrl.bytesReadDRAM                 212992                       # Total number of bytes read from DRAM
system.mem_cntrl.bytesReadWrQ                     256                       # Total number of bytes read from write queue
system.mem_cntrl.bytesWritten                   36864                       # Total number of bytes written to DRAM
system.mem_cntrl.bytesReadSys                   93240                       # Total read bytes from the system interface side
system.mem_cntrl.bytesWrittenSys                36544                       # Total written bytes from the system interface side
system.mem_cntrl.servicedByWrQ                      4                       # Number of DRAM read bursts serviced by the write queue
system.mem_cntrl.mergedWrBursts                     0                       # Number of DRAM write bursts merged with an existing one
system.mem_cntrl.neitherReadNorWriteReqs            0                       # Number of requests that are neither read nor write
system.mem_cntrl.perBankRdBursts::0                50                       # Per bank write bursts
system.mem_cntrl.perBankRdBursts::1                51                       # Per bank write bursts
system.mem_cntrl.perBankRdBursts::2                22                       # Per bank write bursts
system.mem_cntrl.perBankRdBursts::3                19                       # Per bank write bursts
system.mem_cntrl.perBankRdBursts::4               289                       # Per bank write bursts
system.mem_cntrl.perBankRdBursts::5               316                       # Per bank write bursts
system.mem_cntrl.perBankRdBursts::6               852                       # Per bank write bursts
system.mem_cntrl.perBankRdBursts::7               165                       # Per bank write bursts
system.mem_cntrl.perBankRdBursts::8               763                       # Per bank write bursts
system.mem_cntrl.perBankRdBursts::9               165                       # Per bank write bursts
system.mem_cntrl.perBankRdBursts::10              149                       # Per bank write bursts
system.mem_cntrl.perBankRdBursts::11               49                       # Per bank write bursts
system.mem_cntrl.perBankRdBursts::12               62                       # Per bank write bursts
system.mem_cntrl.perBankRdBursts::13               63                       # Per bank write bursts
system.mem_cntrl.perBankRdBursts::14              194                       # Per bank write bursts
system.mem_cntrl.perBankRdBursts::15              119                       # Per bank write bursts
system.mem_cntrl.perBankWrBursts::0                27                       # Per bank write bursts
system.mem_cntrl.perBankWrBursts::1                23                       # Per bank write bursts
system.mem_cntrl.perBankWrBursts::2                10                       # Per bank write bursts
system.mem_cntrl.perBankWrBursts::3                13                       # Per bank write bursts
system.mem_cntrl.perBankWrBursts::4                 3                       # Per bank write bursts
system.mem_cntrl.perBankWrBursts::5                35                       # Per bank write bursts
system.mem_cntrl.perBankWrBursts::6                53                       # Per bank write bursts
system.mem_cntrl.perBankWrBursts::7                15                       # Per bank write bursts
system.mem_cntrl.perBankWrBursts::8                66                       # Per bank write bursts
system.mem_cntrl.perBankWrBursts::9                82                       # Per bank write bursts
system.mem_cntrl.perBankWrBursts::10               33                       # Per bank write bursts
system.mem_cntrl.perBankWrBursts::11               14                       # Per bank write bursts
system.mem_cntrl.perBankWrBursts::12               32                       # Per bank write bursts
system.mem_cntrl.perBankWrBursts::13               32                       # Per bank write bursts
system.mem_cntrl.perBankWrBursts::14               68                       # Per bank write bursts
system.mem_cntrl.perBankWrBursts::15               70                       # Per bank write bursts
system.mem_cntrl.numRdRetry                         0                       # Number of times read queue was full causing retry
system.mem_cntrl.numWrRetry                         0                       # Number of times write queue was full causing retry
system.mem_cntrl.totGap                    1242434000                       # Total gap between requests
system.mem_cntrl.readPktSize::0                     0                       # Read request sizes (log2)
system.mem_cntrl.readPktSize::1                     0                       # Read request sizes (log2)
system.mem_cntrl.readPktSize::2                     0                       # Read request sizes (log2)
system.mem_cntrl.readPktSize::3                  2143                       # Read request sizes (log2)
system.mem_cntrl.readPktSize::4                     0                       # Read request sizes (log2)
system.mem_cntrl.readPktSize::5                     0                       # Read request sizes (log2)
system.mem_cntrl.readPktSize::6                  1189                       # Read request sizes (log2)
system.mem_cntrl.writePktSize::0                    0                       # Write request sizes (log2)
system.mem_cntrl.writePktSize::1                    0                       # Write request sizes (log2)
system.mem_cntrl.writePktSize::2                    0                       # Write request sizes (log2)
system.mem_cntrl.writePktSize::3                    0                       # Write request sizes (log2)
system.mem_cntrl.writePktSize::4                    0                       # Write request sizes (log2)
system.mem_cntrl.writePktSize::5                    0                       # Write request sizes (log2)
system.mem_cntrl.writePktSize::6                  571                       # Write request sizes (log2)
system.mem_cntrl.rdQLenPdf::0                    3106                       # What read queue length does an incoming req see
system.mem_cntrl.rdQLenPdf::1                     201                       # What read queue length does an incoming req see
system.mem_cntrl.rdQLenPdf::2                      19                       # What read queue length does an incoming req see
system.mem_cntrl.rdQLenPdf::3                       2                       # What read queue length does an incoming req see
system.mem_cntrl.rdQLenPdf::4                       0                       # What read queue length does an incoming req see
system.mem_cntrl.rdQLenPdf::5                       0                       # What read queue length does an incoming req see
system.mem_cntrl.rdQLenPdf::6                       0                       # What read queue length does an incoming req see
system.mem_cntrl.rdQLenPdf::7                       0                       # What read queue length does an incoming req see
system.mem_cntrl.rdQLenPdf::8                       0                       # What read queue length does an incoming req see
system.mem_cntrl.rdQLenPdf::9                       0                       # What read queue length does an incoming req see
system.mem_cntrl.rdQLenPdf::10                      0                       # What read queue length does an incoming req see
system.mem_cntrl.rdQLenPdf::11                      0                       # What read queue length does an incoming req see
system.mem_cntrl.rdQLenPdf::12                      0                       # What read queue length does an incoming req see
system.mem_cntrl.rdQLenPdf::13                      0                       # What read queue length does an incoming req see
system.mem_cntrl.rdQLenPdf::14                      0                       # What read queue length does an incoming req see
system.mem_cntrl.rdQLenPdf::15                      0                       # What read queue length does an incoming req see
system.mem_cntrl.rdQLenPdf::16                      0                       # What read queue length does an incoming req see
system.mem_cntrl.rdQLenPdf::17                      0                       # What read queue length does an incoming req see
system.mem_cntrl.rdQLenPdf::18                      0                       # What read queue length does an incoming req see
system.mem_cntrl.rdQLenPdf::19                      0                       # What read queue length does an incoming req see
system.mem_cntrl.rdQLenPdf::20                      0                       # What read queue length does an incoming req see
system.mem_cntrl.rdQLenPdf::21                      0                       # What read queue length does an incoming req see
system.mem_cntrl.rdQLenPdf::22                      0                       # What read queue length does an incoming req see
system.mem_cntrl.rdQLenPdf::23                      0                       # What read queue length does an incoming req see
system.mem_cntrl.rdQLenPdf::24                      0                       # What read queue length does an incoming req see
system.mem_cntrl.rdQLenPdf::25                      0                       # What read queue length does an incoming req see
system.mem_cntrl.rdQLenPdf::26                      0                       # What read queue length does an incoming req see
system.mem_cntrl.rdQLenPdf::27                      0                       # What read queue length does an incoming req see
system.mem_cntrl.rdQLenPdf::28                      0                       # What read queue length does an incoming req see
system.mem_cntrl.rdQLenPdf::29                      0                       # What read queue length does an incoming req see
system.mem_cntrl.rdQLenPdf::30                      0                       # What read queue length does an incoming req see
system.mem_cntrl.rdQLenPdf::31                      0                       # What read queue length does an incoming req see
system.mem_cntrl.wrQLenPdf::0                       0                       # What write queue length does an incoming req see
system.mem_cntrl.wrQLenPdf::1                       0                       # What write queue length does an incoming req see
system.mem_cntrl.wrQLenPdf::2                       0                       # What write queue length does an incoming req see
system.mem_cntrl.wrQLenPdf::3                       0                       # What write queue length does an incoming req see
system.mem_cntrl.wrQLenPdf::4                       0                       # What write queue length does an incoming req see
system.mem_cntrl.wrQLenPdf::5                       0                       # What write queue length does an incoming req see
system.mem_cntrl.wrQLenPdf::6                       0                       # What write queue length does an incoming req see
system.mem_cntrl.wrQLenPdf::7                       0                       # What write queue length does an incoming req see
system.mem_cntrl.wrQLenPdf::8                       0                       # What write queue length does an incoming req see
system.mem_cntrl.wrQLenPdf::9                       0                       # What write queue length does an incoming req see
system.mem_cntrl.wrQLenPdf::10                      0                       # What write queue length does an incoming req see
system.mem_cntrl.wrQLenPdf::11                      0                       # What write queue length does an incoming req see
system.mem_cntrl.wrQLenPdf::12                      0                       # What write queue length does an incoming req see
system.mem_cntrl.wrQLenPdf::13                      0                       # What write queue length does an incoming req see
system.mem_cntrl.wrQLenPdf::14                      0                       # What write queue length does an incoming req see
system.mem_cntrl.wrQLenPdf::15                      8                       # What write queue length does an incoming req see
system.mem_cntrl.wrQLenPdf::16                      8                       # What write queue length does an incoming req see
system.mem_cntrl.wrQLenPdf::17                     32                       # What write queue length does an incoming req see
system.mem_cntrl.wrQLenPdf::18                     35                       # What write queue length does an incoming req see
system.mem_cntrl.wrQLenPdf::19                     35                       # What write queue length does an incoming req see
system.mem_cntrl.wrQLenPdf::20                     35                       # What write queue length does an incoming req see
system.mem_cntrl.wrQLenPdf::21                     35                       # What write queue length does an incoming req see
system.mem_cntrl.wrQLenPdf::22                     35                       # What write queue length does an incoming req see
system.mem_cntrl.wrQLenPdf::23                     34                       # What write queue length does an incoming req see
system.mem_cntrl.wrQLenPdf::24                     34                       # What write queue length does an incoming req see
system.mem_cntrl.wrQLenPdf::25                     34                       # What write queue length does an incoming req see
system.mem_cntrl.wrQLenPdf::26                     34                       # What write queue length does an incoming req see
system.mem_cntrl.wrQLenPdf::27                     34                       # What write queue length does an incoming req see
system.mem_cntrl.wrQLenPdf::28                     35                       # What write queue length does an incoming req see
system.mem_cntrl.wrQLenPdf::29                     37                       # What write queue length does an incoming req see
system.mem_cntrl.wrQLenPdf::30                     36                       # What write queue length does an incoming req see
system.mem_cntrl.wrQLenPdf::31                     35                       # What write queue length does an incoming req see
system.mem_cntrl.wrQLenPdf::32                     35                       # What write queue length does an incoming req see
system.mem_cntrl.wrQLenPdf::33                      0                       # What write queue length does an incoming req see
system.mem_cntrl.wrQLenPdf::34                      0                       # What write queue length does an incoming req see
system.mem_cntrl.wrQLenPdf::35                      0                       # What write queue length does an incoming req see
system.mem_cntrl.wrQLenPdf::36                      0                       # What write queue length does an incoming req see
system.mem_cntrl.wrQLenPdf::37                      0                       # What write queue length does an incoming req see
system.mem_cntrl.wrQLenPdf::38                      0                       # What write queue length does an incoming req see
system.mem_cntrl.wrQLenPdf::39                      0                       # What write queue length does an incoming req see
system.mem_cntrl.wrQLenPdf::40                      0                       # What write queue length does an incoming req see
system.mem_cntrl.wrQLenPdf::41                      0                       # What write queue length does an incoming req see
system.mem_cntrl.wrQLenPdf::42                      0                       # What write queue length does an incoming req see
system.mem_cntrl.wrQLenPdf::43                      0                       # What write queue length does an incoming req see
system.mem_cntrl.wrQLenPdf::44                      0                       # What write queue length does an incoming req see
system.mem_cntrl.wrQLenPdf::45                      0                       # What write queue length does an incoming req see
system.mem_cntrl.wrQLenPdf::46                      0                       # What write queue length does an incoming req see
system.mem_cntrl.wrQLenPdf::47                      0                       # What write queue length does an incoming req see
system.mem_cntrl.wrQLenPdf::48                      0                       # What write queue length does an incoming req see
system.mem_cntrl.wrQLenPdf::49                      0                       # What write queue length does an incoming req see
system.mem_cntrl.wrQLenPdf::50                      0                       # What write queue length does an incoming req see
system.mem_cntrl.wrQLenPdf::51                      0                       # What write queue length does an incoming req see
system.mem_cntrl.wrQLenPdf::52                      0                       # What write queue length does an incoming req see
system.mem_cntrl.wrQLenPdf::53                      0                       # What write queue length does an incoming req see
system.mem_cntrl.wrQLenPdf::54                      0                       # What write queue length does an incoming req see
system.mem_cntrl.wrQLenPdf::55                      0                       # What write queue length does an incoming req see
system.mem_cntrl.wrQLenPdf::56                      0                       # What write queue length does an incoming req see
system.mem_cntrl.wrQLenPdf::57                      0                       # What write queue length does an incoming req see
system.mem_cntrl.wrQLenPdf::58                      0                       # What write queue length does an incoming req see
system.mem_cntrl.wrQLenPdf::59                      0                       # What write queue length does an incoming req see
system.mem_cntrl.wrQLenPdf::60                      0                       # What write queue length does an incoming req see
system.mem_cntrl.wrQLenPdf::61                      0                       # What write queue length does an incoming req see
system.mem_cntrl.wrQLenPdf::62                      0                       # What write queue length does an incoming req see
system.mem_cntrl.wrQLenPdf::63                      0                       # What write queue length does an incoming req see
system.mem_cntrl.bytesPerActivate::samples         1182                       # Bytes accessed per row activation
system.mem_cntrl.bytesPerActivate::mean    211.546531                       # Bytes accessed per row activation
system.mem_cntrl.bytesPerActivate::gmean   132.569626                       # Bytes accessed per row activation
system.mem_cntrl.bytesPerActivate::stdev   254.169546                       # Bytes accessed per row activation
system.mem_cntrl.bytesPerActivate::0-127          581     49.15%     49.15% # Bytes accessed per row activation
system.mem_cntrl.bytesPerActivate::128-255          300     25.38%     74.53% # Bytes accessed per row activation
system.mem_cntrl.bytesPerActivate::256-383          113      9.56%     84.09% # Bytes accessed per row activation
system.mem_cntrl.bytesPerActivate::384-511           58      4.91%     89.00% # Bytes accessed per row activation
system.mem_cntrl.bytesPerActivate::512-639           23      1.95%     90.95% # Bytes accessed per row activation
system.mem_cntrl.bytesPerActivate::640-767           14      1.18%     92.13% # Bytes accessed per row activation
system.mem_cntrl.bytesPerActivate::768-895           18      1.52%     93.65% # Bytes accessed per row activation
system.mem_cntrl.bytesPerActivate::896-1023           11      0.93%     94.59% # Bytes accessed per row activation
system.mem_cntrl.bytesPerActivate::1024-1151           64      5.41%    100.00% # Bytes accessed per row activation
system.mem_cntrl.bytesPerActivate::total         1182                       # Bytes accessed per row activation
system.mem_cntrl.rdPerTurnAround::samples           35                       # Reads before turning the bus around for writes
system.mem_cntrl.rdPerTurnAround::mean      98.085714                       # Reads before turning the bus around for writes
system.mem_cntrl.rdPerTurnAround::gmean     65.981541                       # Reads before turning the bus around for writes
system.mem_cntrl.rdPerTurnAround::stdev     97.952681                       # Reads before turning the bus around for writes
system.mem_cntrl.rdPerTurnAround::16-31             7     20.00%     20.00% # Reads before turning the bus around for writes
system.mem_cntrl.rdPerTurnAround::32-47             8     22.86%     42.86% # Reads before turning the bus around for writes
system.mem_cntrl.rdPerTurnAround::48-63             6     17.14%     60.00% # Reads before turning the bus around for writes
system.mem_cntrl.rdPerTurnAround::64-79             3      8.57%     68.57% # Reads before turning the bus around for writes
system.mem_cntrl.rdPerTurnAround::96-111            1      2.86%     71.43% # Reads before turning the bus around for writes
system.mem_cntrl.rdPerTurnAround::112-127            1      2.86%     74.29% # Reads before turning the bus around for writes
system.mem_cntrl.rdPerTurnAround::160-175            1      2.86%     77.14% # Reads before turning the bus around for writes
system.mem_cntrl.rdPerTurnAround::176-191            1      2.86%     80.00% # Reads before turning the bus around for writes
system.mem_cntrl.rdPerTurnAround::192-207            3      8.57%     88.57% # Reads before turning the bus around for writes
system.mem_cntrl.rdPerTurnAround::224-239            1      2.86%     91.43% # Reads before turning the bus around for writes
system.mem_cntrl.rdPerTurnAround::288-303            1      2.86%     94.29% # Reads before turning the bus around for writes
system.mem_cntrl.rdPerTurnAround::304-319            1      2.86%     97.14% # Reads before turning the bus around for writes
system.mem_cntrl.rdPerTurnAround::400-415            1      2.86%    100.00% # Reads before turning the bus around for writes
system.mem_cntrl.rdPerTurnAround::total            35                       # Reads before turning the bus around for writes
system.mem_cntrl.wrPerTurnAround::samples           35                       # Writes before turning the bus around for reads
system.mem_cntrl.wrPerTurnAround::mean      16.457143                       # Writes before turning the bus around for reads
system.mem_cntrl.wrPerTurnAround::gmean     16.436600                       # Writes before turning the bus around for reads
system.mem_cntrl.wrPerTurnAround::stdev      0.852086                       # Writes before turning the bus around for reads
system.mem_cntrl.wrPerTurnAround::16               27     77.14%     77.14% # Writes before turning the bus around for reads
system.mem_cntrl.wrPerTurnAround::18                8     22.86%    100.00% # Writes before turning the bus around for reads
system.mem_cntrl.wrPerTurnAround::total            35                       # Writes before turning the bus around for reads
system.mem_cntrl.totQLat                     66245250                       # Total ticks spent queuing
system.mem_cntrl.totMemAccLat               128645250                       # Total ticks spent from burst creation until serviced by the DRAM
system.mem_cntrl.totBusLat                   16640000                       # Total ticks spent in databus transfers
system.mem_cntrl.avgQLat                     19905.42                       # Average queueing delay per DRAM burst
system.mem_cntrl.avgBusLat                    5000.00                       # Average bus latency per DRAM burst
system.mem_cntrl.avgMemAccLat                38655.42                       # Average memory access latency per DRAM burst
system.mem_cntrl.avgRdBW                       171.16                       # Average DRAM read bandwidth in MiByte/s
system.mem_cntrl.avgWrBW                        29.62                       # Average achieved write bandwidth in MiByte/s
system.mem_cntrl.avgRdBWSys                     74.93                       # Average system read bandwidth in MiByte/s
system.mem_cntrl.avgWrBWSys                     29.37                       # Average system write bandwidth in MiByte/s
system.mem_cntrl.peakBW                      12800.00                       # Theoretical peak bandwidth in MiByte/s
system.mem_cntrl.busUtil                         1.57                       # Data bus utilization in percentage
system.mem_cntrl.busUtilRead                     1.34                       # Data bus utilization in percentage for reads
system.mem_cntrl.busUtilWrite                    0.23                       # Data bus utilization in percentage for writes
system.mem_cntrl.avgRdQLen                       1.13                       # Average read queue length when enqueuing
system.mem_cntrl.avgWrQLen                      23.80                       # Average write queue length when enqueuing
system.mem_cntrl.readRowHits                     2448                       # Number of row buffer hits during reads
system.mem_cntrl.writeRowHits                     276                       # Number of row buffer hits during writes
system.mem_cntrl.readRowHitRate                 73.56                       # Row buffer hit rate for reads
system.mem_cntrl.writeRowHitRate                48.34                       # Row buffer hit rate for writes
system.mem_cntrl.avgGap                     318327.95                       # Average gap between requests
system.mem_cntrl.pageHitRate                    69.86                       # Row buffer hit rate, read and write combined
system.mem_cntrl_0.actEnergy                  4333980                       # Energy for activate commands per rank (pJ)
system.mem_cntrl_0.preEnergy                  2303565                       # Energy for precharge commands per rank (pJ)
system.mem_cntrl_0.readEnergy                12609240                       # Energy for read commands per rank (pJ)
system.mem_cntrl_0.writeEnergy                 934380                       # Energy for write commands per rank (pJ)
system.mem_cntrl_0.refreshEnergy         94654560.000000                       # Energy for refresh commands per rank (pJ)
system.mem_cntrl_0.actBackEnergy             54817470                       # Energy for active background per rank (pJ)
system.mem_cntrl_0.preBackEnergy              3044640                       # Energy for precharge background per rank (pJ)
system.mem_cntrl_0.actPowerDownEnergy       306001080                       # Energy for active power-down per rank (pJ)
system.mem_cntrl_0.prePowerDownEnergy       120188640                       # Energy for precharge power-down per rank (pJ)
system.mem_cntrl_0.selfRefreshEnergy         38906880                       # Energy for self refresh per rank (pJ)
system.mem_cntrl_0.totalEnergy              637885785                       # Total energy per rank (pJ)
system.mem_cntrl_0.averagePower            512.595831                       # Core power per rank (mW)
system.mem_cntrl_0.totalIdleTime           1117985000                       # Total Idle time Per DRAM Rank
system.mem_cntrl_0.memoryStateTime::IDLE      3972000                       # Time in different power states
system.mem_cntrl_0.memoryStateTime::REF      40124000                       # Time in different power states
system.mem_cntrl_0.memoryStateTime::SREF    134297250                       # Time in different power states
system.mem_cntrl_0.memoryStateTime::PRE_PDN    312995250                       # Time in different power states
system.mem_cntrl_0.memoryStateTime::ACT      84192500                       # Time in different power states
system.mem_cntrl_0.memoryStateTime::ACT_PDN    671004500                       # Time in different power states
system.mem_cntrl_1.actEnergy                  4119780                       # Energy for activate commands per rank (pJ)
system.mem_cntrl_1.preEnergy                  2182125                       # Energy for precharge commands per rank (pJ)
system.mem_cntrl_1.readEnergy                11195520                       # Energy for read commands per rank (pJ)
system.mem_cntrl_1.writeEnergy                2072340                       # Energy for write commands per rank (pJ)
system.mem_cntrl_1.refreshEnergy         90966720.000000                       # Energy for refresh commands per rank (pJ)
system.mem_cntrl_1.actBackEnergy             48071520                       # Energy for active background per rank (pJ)
system.mem_cntrl_1.preBackEnergy              3701280                       # Energy for precharge background per rank (pJ)
system.mem_cntrl_1.actPowerDownEnergy       280641780                       # Energy for active power-down per rank (pJ)
system.mem_cntrl_1.prePowerDownEnergy       117500640                       # Energy for precharge power-down per rank (pJ)
system.mem_cntrl_1.selfRefreshEnergy         60463980                       # Energy for self refresh per rank (pJ)
system.mem_cntrl_1.totalEnergy              620915685                       # Total energy per rank (pJ)
system.mem_cntrl_1.averagePower            498.958903                       # Core power per rank (mW)
system.mem_cntrl_1.totalIdleTime           1125743250                       # Total Idle time Per DRAM Rank
system.mem_cntrl_1.memoryStateTime::IDLE      5250000                       # Time in different power states
system.mem_cntrl_1.memoryStateTime::REF      38594000                       # Time in different power states
system.mem_cntrl_1.memoryStateTime::SREF    212816500                       # Time in different power states
system.mem_cntrl_1.memoryStateTime::PRE_PDN    305364250                       # Time in different power states
system.mem_cntrl_1.memoryStateTime::ACT      71139250                       # Time in different power states
system.mem_cntrl_1.memoryStateTime::ACT_PDN    611519750                       # Time in different power states
system.pwrStateResidencyTicks::UNDEFINED 4803291731000                       # Cumulative time (in ticks) in various power states
system.apicbridge.pwrStateResidencyTicks::UNDEFINED 4803291731000                       # Cumulative time (in ticks) in various power states
system.bridge.pwrStateResidencyTicks::UNDEFINED 4803291731000                       # Cumulative time (in ticks) in various power states
system.cpu.branchPred.lookups                  446988                       # Number of BP lookups
system.cpu.branchPred.condPredicted            446988                       # Number of conditional branches predicted
system.cpu.branchPred.condIncorrect             52620                       # Number of conditional branches incorrect
system.cpu.branchPred.BTBLookups               374296                       # Number of BTB lookups
system.cpu.branchPred.BTBHits                       0                       # Number of BTB hits
system.cpu.branchPred.BTBCorrect                    0                       # Number of correct BTB predictions (this stat may not work properly.
system.cpu.branchPred.BTBHitPct              0.000000                       # BTB Hit Percentage
system.cpu.branchPred.usedRAS                   44432                       # Number of times the RAS was used to get a target.
system.cpu.branchPred.RASInCorrect              10761                       # Number of incorrect RAS predictions.
system.cpu.branchPred.correctpredictionPercent    88.227872                       # Correct prediction percentage
system.cpu.branchPred.indirectLookups          374296                       # Number of indirect predictor lookups.
system.cpu.branchPred.indirectHits             101042                       # Number of indirect target hits.
system.cpu.branchPred.indirectMisses           273254                       # Number of indirect misses.
system.cpu.branchPredindirectMispredicted        37148                       # Number of mispredicted indirect branches.
system.cpu.dtb.walker.pwrStateResidencyTicks::UNDEFINED 4803291731000                       # Cumulative time (in ticks) in various power states
system.cpu.dtb.rdAccesses                      359414                       # TLB accesses on read requests
system.cpu.dtb.wrAccesses                      227544                       # TLB accesses on write requests
system.cpu.dtb.rdMisses                          8767                       # TLB misses on read requests
system.cpu.dtb.wrMisses                          2061                       # TLB misses on write requests
system.cpu.apic_clk_domain.clock                 8000                       # Clock period in ticks
system.cpu.interrupts.pwrStateResidencyTicks::UNDEFINED 4803291731000                       # Cumulative time (in ticks) in various power states
system.cpu.itb.walker.pwrStateResidencyTicks::UNDEFINED 4803291731000                       # Cumulative time (in ticks) in various power states
system.cpu.itb.rdAccesses                           0                       # TLB accesses on read requests
system.cpu.itb.wrAccesses                      282141                       # TLB accesses on write requests
system.cpu.itb.rdMisses                             0                       # TLB misses on read requests
system.cpu.itb.wrMisses                          1421                       # TLB misses on write requests
system.cpu.pwrStateResidencyTicks::ON      2510671000                       # Cumulative time (in ticks) in various power states
system.cpu.numCycles                          2488845                       # number of cpu cycles simulated
system.cpu.numWorkItemsStarted                      0                       # number of work items this cpu started
system.cpu.numWorkItemsCompleted                    0                       # number of work items this cpu completed
system.cpu.fetch.icacheStallCycles             579860                       # Number of cycles fetch is stalled on an Icache miss
system.cpu.fetch.Insts                        2034647                       # Number of instructions fetch has processed
system.cpu.fetch.Branches                      446988                       # Number of branches that fetch encountered
system.cpu.fetch.predictedBranches             145474                       # Number of branches that fetch has predicted taken
system.cpu.fetch.Cycles                       1613450                       # Number of cycles fetch has run and was not squashing or blocked
system.cpu.fetch.SquashCycles                  114346                       # Number of cycles fetch has spent squashing
system.cpu.fetch.TlbCycles                      48457                       # Number of cycles fetch has spent waiting for tlb
system.cpu.fetch.MiscStallCycles                 1671                       # Number of cycles fetch has spent waiting on interrupts, or bad addresses, or out of MSHRs
system.cpu.fetch.PendingTrapStallCycles         39403                       # Number of stall cycles due to pending traps
system.cpu.fetch.PendingQuiesceStallCycles           26                       # Number of stall cycles due to pending quiesce instructions
system.cpu.fetch.CacheLines                    276162                       # Number of cache lines fetched
system.cpu.fetch.IcacheSquashes                 20760                       # Number of outstanding Icache misses that were squashed
system.cpu.fetch.ItlbSquashes                     710                       # Number of outstanding ITLB misses that were squashed
system.cpu.fetch.rateDist::samples            2340040                       # Number of instructions fetched each cycle (Total)
system.cpu.fetch.rateDist::mean              1.712960                       # Number of instructions fetched each cycle (Total)
system.cpu.fetch.rateDist::stdev             3.078738                       # Number of instructions fetched each cycle (Total)
system.cpu.fetch.rateDist::underflows               0      0.00%      0.00% # Number of instructions fetched each cycle (Total)
system.cpu.fetch.rateDist::0                  1699223     72.62%     72.62% # Number of instructions fetched each cycle (Total)
system.cpu.fetch.rateDist::1                    57869      2.47%     75.09% # Number of instructions fetched each cycle (Total)
system.cpu.fetch.rateDist::2                    30973      1.32%     76.41% # Number of instructions fetched each cycle (Total)
system.cpu.fetch.rateDist::3                    37325      1.60%     78.01% # Number of instructions fetched each cycle (Total)
system.cpu.fetch.rateDist::4                    36340      1.55%     79.56% # Number of instructions fetched each cycle (Total)
system.cpu.fetch.rateDist::5                    33172      1.42%     80.98% # Number of instructions fetched each cycle (Total)
system.cpu.fetch.rateDist::6                    32555      1.39%     82.37% # Number of instructions fetched each cycle (Total)
system.cpu.fetch.rateDist::7                    30609      1.31%     83.68% # Number of instructions fetched each cycle (Total)
system.cpu.fetch.rateDist::8                   381974     16.32%    100.00% # Number of instructions fetched each cycle (Total)
system.cpu.fetch.rateDist::overflows                0      0.00%    100.00% # Number of instructions fetched each cycle (Total)
system.cpu.fetch.rateDist::min_value                0                       # Number of instructions fetched each cycle (Total)
system.cpu.fetch.rateDist::max_value                8                       # Number of instructions fetched each cycle (Total)
system.cpu.fetch.rateDist::total              2340040                       # Number of instructions fetched each cycle (Total)
system.cpu.fetch.branchRate                  0.179597                       # Number of branch fetches per cycle
system.cpu.fetch.rate                        0.817507                       # Number of inst fetches per cycle
system.cpu.decode.IdleCycles                   544689                       # Number of cycles decode is idle
system.cpu.decode.BlockedCycles               1212178                       # Number of cycles decode is blocked
system.cpu.decode.RunCycles                    458489                       # Number of cycles decode is running
system.cpu.decode.UnblockCycles                 67511                       # Number of cycles decode is unblocking
system.cpu.decode.SquashCycles                  57173                       # Number of cycles decode is squashing
system.cpu.decode.DecodedInsts                3588187                       # Number of instructions handled by decode
system.cpu.rename.SquashCycles                  57173                       # Number of cycles rename is squashing
system.cpu.rename.IdleCycles                   587986                       # Number of cycles rename is idle
system.cpu.rename.BlockCycles                  559382                       # Number of cycles rename is blocking
system.cpu.rename.serializeStallCycles         356606                       # count of cycles rename stalled for serializing inst
system.cpu.rename.RunCycles                    478332                       # Number of cycles rename is running
system.cpu.rename.UnblockCycles                300561                       # Number of cycles rename is unblocking
system.cpu.rename.RenamedInsts                3358856                       # Number of instructions processed by rename
system.cpu.rename.ROBFullEvents                  3337                       # Number of times rename has blocked due to ROB full
system.cpu.rename.IQFullEvents                  25316                       # Number of times rename has blocked due to IQ full
system.cpu.rename.LQFullEvents                  17536                       # Number of times rename has blocked due to LQ full
system.cpu.rename.SQFullEvents                 237987                       # Number of times rename has blocked due to SQ full
system.cpu.rename.RenamedOperands             3688950                       # Number of destination operands rename has renamed
system.cpu.rename.RenameLookups               8421113                       # Number of register rename lookups that rename has made
system.cpu.rename.int_rename_lookups          5187474                       # Number of integer rename lookups
system.cpu.rename.fp_rename_lookups             11806                       # Number of floating rename lookups
system.cpu.rename.CommittedMaps               1965834                       # Number of HB maps that are committed
system.cpu.rename.UndoneMaps                  1723145                       # Number of HB maps that are undone due to squashing
system.cpu.rename.serializingInsts              14376                       # count of serializing insts renamed
system.cpu.rename.tempSerializingInsts          14403                       # count of temporary serializing insts renamed
system.cpu.rename.skidInsts                    282971                       # count of insts added to the skid buffer
system.cpu.memDep0.insertedLoads               439405                       # Number of loads inserted to the mem dependence unit.
system.cpu.memDep0.insertedStores              278932                       # Number of stores inserted to the mem dependence unit.
system.cpu.memDep0.conflictingLoads             34646                       # Number of conflicting loads.
system.cpu.memDep0.conflictingStores            32838                       # Number of conflicting stores.
system.cpu.iq.iqInstsAdded                    2973856                       # Number of instructions added to the IQ (excludes non-spec)
system.cpu.iq.iqNonSpecInstsAdded               16898                       # Number of non-speculative instructions added to the IQ
system.cpu.iq.iqInstsIssued                   2566428                       # Number of instructions issued
system.cpu.iq.iqSquashedInstsIssued             20372                       # Number of squashed instructions issued
system.cpu.iq.iqSquashedInstsExamined         1228896                       # Number of squashed instructions iterated over during squash; mainly for profiling
system.cpu.iq.iqSquashedOperandsExamined      1792800                       # Number of squashed operands that are examined and possibly removed from graph
system.cpu.iq.iqSquashedNonSpecRemoved           5229                       # Number of squashed non-spec instructions that were removed
system.cpu.iq.issued_per_cycle::samples       2340040                       # Number of insts issued each cycle
system.cpu.iq.issued_per_cycle::mean         1.096745                       # Number of insts issued each cycle
system.cpu.iq.issued_per_cycle::stdev        1.981220                       # Number of insts issued each cycle
system.cpu.iq.issued_per_cycle::underflows            0      0.00%      0.00% # Number of insts issued each cycle
system.cpu.iq.issued_per_cycle::0             1581928     67.60%     67.60% # Number of insts issued each cycle
system.cpu.iq.issued_per_cycle::1              195530      8.36%     75.96% # Number of insts issued each cycle
system.cpu.iq.issued_per_cycle::2              128453      5.49%     81.45% # Number of insts issued each cycle
system.cpu.iq.issued_per_cycle::3              103972      4.44%     85.89% # Number of insts issued each cycle
system.cpu.iq.issued_per_cycle::4               94982      4.06%     89.95% # Number of insts issued each cycle
system.cpu.iq.issued_per_cycle::5               86391      3.69%     93.64% # Number of insts issued each cycle
system.cpu.iq.issued_per_cycle::6               77175      3.30%     96.94% # Number of insts issued each cycle
system.cpu.iq.issued_per_cycle::7               45729      1.95%     98.89% # Number of insts issued each cycle
system.cpu.iq.issued_per_cycle::8               25880      1.11%    100.00% # Number of insts issued each cycle
system.cpu.iq.issued_per_cycle::overflows            0      0.00%    100.00% # Number of insts issued each cycle
system.cpu.iq.issued_per_cycle::min_value            0                       # Number of insts issued each cycle
system.cpu.iq.issued_per_cycle::max_value            8                       # Number of insts issued each cycle
system.cpu.iq.issued_per_cycle::total         2340040                       # Number of insts issued each cycle
system.cpu.iq.fu_full::No_OpClass                   0      0.00%      0.00% # attempts to use FU when none available
system.cpu.iq.fu_full::IntAlu                   25502     66.85%     66.85% # attempts to use FU when none available
system.cpu.iq.fu_full::IntMult                      0      0.00%     66.85% # attempts to use FU when none available
system.cpu.iq.fu_full::IntDiv                       0      0.00%     66.85% # attempts to use FU when none available
system.cpu.iq.fu_full::FloatAdd                    43      0.11%     66.97% # attempts to use FU when none available
system.cpu.iq.fu_full::FloatCmp                     0      0.00%     66.97% # attempts to use FU when none available
system.cpu.iq.fu_full::FloatCvt                     0      0.00%     66.97% # attempts to use FU when none available
system.cpu.iq.fu_full::FloatMult                    0      0.00%     66.97% # attempts to use FU when none available
system.cpu.iq.fu_full::FloatMultAcc                 0      0.00%     66.97% # attempts to use FU when none available
system.cpu.iq.fu_full::FloatDiv                     0      0.00%     66.97% # attempts to use FU when none available
system.cpu.iq.fu_full::FloatMisc                    0      0.00%     66.97% # attempts to use FU when none available
system.cpu.iq.fu_full::FloatSqrt                    0      0.00%     66.97% # attempts to use FU when none available
system.cpu.iq.fu_full::SimdAdd                      0      0.00%     66.97% # attempts to use FU when none available
system.cpu.iq.fu_full::SimdAddAcc                   0      0.00%     66.97% # attempts to use FU when none available
system.cpu.iq.fu_full::SimdAlu                      0      0.00%     66.97% # attempts to use FU when none available
system.cpu.iq.fu_full::SimdCmp                      0      0.00%     66.97% # attempts to use FU when none available
system.cpu.iq.fu_full::SimdCvt                      0      0.00%     66.97% # attempts to use FU when none available
system.cpu.iq.fu_full::SimdMisc                     0      0.00%     66.97% # attempts to use FU when none available
system.cpu.iq.fu_full::SimdMult                     0      0.00%     66.97% # attempts to use FU when none available
system.cpu.iq.fu_full::SimdMultAcc                  0      0.00%     66.97% # attempts to use FU when none available
system.cpu.iq.fu_full::SimdShift                    0      0.00%     66.97% # attempts to use FU when none available
system.cpu.iq.fu_full::SimdShiftAcc                 0      0.00%     66.97% # attempts to use FU when none available
system.cpu.iq.fu_full::SimdSqrt                     0      0.00%     66.97% # attempts to use FU when none available
system.cpu.iq.fu_full::SimdFloatAdd                 0      0.00%     66.97% # attempts to use FU when none available
system.cpu.iq.fu_full::SimdFloatAlu                 0      0.00%     66.97% # attempts to use FU when none available
system.cpu.iq.fu_full::SimdFloatCmp                 0      0.00%     66.97% # attempts to use FU when none available
system.cpu.iq.fu_full::SimdFloatCvt                 0      0.00%     66.97% # attempts to use FU when none available
system.cpu.iq.fu_full::SimdFloatDiv                 0      0.00%     66.97% # attempts to use FU when none available
system.cpu.iq.fu_full::SimdFloatMisc                0      0.00%     66.97% # attempts to use FU when none available
system.cpu.iq.fu_full::SimdFloatMult                0      0.00%     66.97% # attempts to use FU when none available
system.cpu.iq.fu_full::SimdFloatMultAcc             0      0.00%     66.97% # attempts to use FU when none available
system.cpu.iq.fu_full::SimdFloatSqrt                0      0.00%     66.97% # attempts to use FU when none available
system.cpu.iq.fu_full::MemRead                   8980     23.54%     90.51% # attempts to use FU when none available
system.cpu.iq.fu_full::MemWrite                  3588      9.41%     99.91% # attempts to use FU when none available
system.cpu.iq.fu_full::FloatMemRead                15      0.04%     99.95% # attempts to use FU when none available
system.cpu.iq.fu_full::FloatMemWrite               18      0.05%    100.00% # attempts to use FU when none available
system.cpu.iq.fu_full::IprAccess                    0      0.00%    100.00% # attempts to use FU when none available
system.cpu.iq.fu_full::InstPrefetch                 0      0.00%    100.00% # attempts to use FU when none available
system.cpu.iq.FU_type_0::No_OpClass             34941      1.36%      1.36% # Type of FU issued
system.cpu.iq.FU_type_0::IntAlu               1905751     74.26%     75.62% # Type of FU issued
system.cpu.iq.FU_type_0::IntMult                 1483      0.06%     75.68% # Type of FU issued
system.cpu.iq.FU_type_0::IntDiv                  1816      0.07%     75.75% # Type of FU issued
system.cpu.iq.FU_type_0::FloatAdd                3023      0.12%     75.86% # Type of FU issued
system.cpu.iq.FU_type_0::FloatCmp                   0      0.00%     75.86% # Type of FU issued
system.cpu.iq.FU_type_0::FloatCvt                   4      0.00%     75.86% # Type of FU issued
system.cpu.iq.FU_type_0::FloatMult                  0      0.00%     75.86% # Type of FU issued
system.cpu.iq.FU_type_0::FloatMultAcc               0      0.00%     75.86% # Type of FU issued
system.cpu.iq.FU_type_0::FloatDiv                   0      0.00%     75.86% # Type of FU issued
system.cpu.iq.FU_type_0::FloatMisc                  0      0.00%     75.86% # Type of FU issued
system.cpu.iq.FU_type_0::FloatSqrt                  0      0.00%     75.86% # Type of FU issued
system.cpu.iq.FU_type_0::SimdAdd                    0      0.00%     75.86% # Type of FU issued
system.cpu.iq.FU_type_0::SimdAddAcc                 0      0.00%     75.86% # Type of FU issued
system.cpu.iq.FU_type_0::SimdAlu                    0      0.00%     75.86% # Type of FU issued
system.cpu.iq.FU_type_0::SimdCmp                    0      0.00%     75.86% # Type of FU issued
system.cpu.iq.FU_type_0::SimdCvt                    0      0.00%     75.86% # Type of FU issued
system.cpu.iq.FU_type_0::SimdMisc                   0      0.00%     75.86% # Type of FU issued
system.cpu.iq.FU_type_0::SimdMult                   0      0.00%     75.86% # Type of FU issued
system.cpu.iq.FU_type_0::SimdMultAcc                0      0.00%     75.86% # Type of FU issued
system.cpu.iq.FU_type_0::SimdShift                  0      0.00%     75.86% # Type of FU issued
system.cpu.iq.FU_type_0::SimdShiftAcc               0      0.00%     75.86% # Type of FU issued
system.cpu.iq.FU_type_0::SimdSqrt                   0      0.00%     75.86% # Type of FU issued
system.cpu.iq.FU_type_0::SimdFloatAdd               0      0.00%     75.86% # Type of FU issued
system.cpu.iq.FU_type_0::SimdFloatAlu               0      0.00%     75.86% # Type of FU issued
system.cpu.iq.FU_type_0::SimdFloatCmp               0      0.00%     75.86% # Type of FU issued
system.cpu.iq.FU_type_0::SimdFloatCvt               0      0.00%     75.86% # Type of FU issued
system.cpu.iq.FU_type_0::SimdFloatDiv               0      0.00%     75.86% # Type of FU issued
system.cpu.iq.FU_type_0::SimdFloatMisc              0      0.00%     75.86% # Type of FU issued
system.cpu.iq.FU_type_0::SimdFloatMult              0      0.00%     75.86% # Type of FU issued
system.cpu.iq.FU_type_0::SimdFloatMultAcc            0      0.00%     75.86% # Type of FU issued
system.cpu.iq.FU_type_0::SimdFloatSqrt              0      0.00%     75.86% # Type of FU issued
system.cpu.iq.FU_type_0::MemRead               379110     14.77%     90.64% # Type of FU issued
system.cpu.iq.FU_type_0::MemWrite              238816      9.31%     99.94% # Type of FU issued
system.cpu.iq.FU_type_0::FloatMemRead            1388      0.05%    100.00% # Type of FU issued
system.cpu.iq.FU_type_0::FloatMemWrite             96      0.00%    100.00% # Type of FU issued
system.cpu.iq.FU_type_0::IprAccess                  0      0.00%    100.00% # Type of FU issued
system.cpu.iq.FU_type_0::InstPrefetch               0      0.00%    100.00% # Type of FU issued
system.cpu.iq.FU_type_0::total                2566428                       # Type of FU issued
system.cpu.iq.rate                           1.031172                       # Inst issue rate
system.cpu.iq.fu_busy_cnt                       38146                       # FU busy when requested
system.cpu.iq.fu_busy_rate                   0.014863                       # FU busy rate (busy events/executed inst)
system.cpu.iq.int_inst_queue_reads            7521760                       # Number of integer instruction queue reads
system.cpu.iq.int_inst_queue_writes           4209961                       # Number of integer instruction queue writes
system.cpu.iq.int_inst_queue_wakeup_accesses      2397930                       # Number of integer instruction queue wakeup accesses
system.cpu.iq.fp_inst_queue_reads                9654                       # Number of floating instruction queue reads
system.cpu.iq.fp_inst_queue_writes              10890                       # Number of floating instruction queue writes
system.cpu.iq.fp_inst_queue_wakeup_accesses         4079                       # Number of floating instruction queue wakeup accesses
system.cpu.iq.int_alu_accesses                2564882                       # Number of integer alu accesses
system.cpu.iq.fp_alu_accesses                    4751                       # Number of floating point alu accesses
system.cpu.iew.lsq.thread0.forwLoads            31751                       # Number of loads that had data forwarded from stores
system.cpu.iew.lsq.thread0.invAddrLoads             0                       # Number of loads ignored due to an invalid address
system.cpu.iew.lsq.thread0.squashedLoads       181323                       # Number of loads squashed
system.cpu.iew.lsq.thread0.ignoredResponses          680                       # Number of memory responses ignored because the instruction is squashed
system.cpu.iew.lsq.thread0.memOrderViolation         1235                       # Number of memory ordering violations
system.cpu.iew.lsq.thread0.squashedStores        88188                       # Number of stores squashed
system.cpu.iew.lsq.thread0.invAddrSwpfs             0                       # Number of software prefetches ignored due to an invalid address
system.cpu.iew.lsq.thread0.blockedLoads             0                       # Number of blocked loads due to partial load-store forwarding
system.cpu.iew.lsq.thread0.rescheduledLoads         1370                       # Number of loads that were rescheduled
system.cpu.iew.lsq.thread0.cacheBlocked          2226                       # Number of times an access to memory failed due to the cache being blocked
system.cpu.iew.iewIdleCycles                        0                       # Number of cycles IEW is idle
system.cpu.iew.iewSquashCycles                  57173                       # Number of cycles IEW is squashing
system.cpu.iew.iewBlockCycles                  295937                       # Number of cycles IEW is blocking
system.cpu.iew.iewUnblockCycles                150299                       # Number of cycles IEW is unblocking
system.cpu.iew.iewDispatchedInsts             2990754                       # Number of instructions dispatched to IQ
system.cpu.iew.iewDispSquashedInsts              4964                       # Number of squashed instructions skipped by dispatch
system.cpu.iew.iewDispLoadInsts                439405                       # Number of dispatched load instructions
system.cpu.iew.iewDispStoreInsts               278932                       # Number of dispatched store instructions
system.cpu.iew.iewDispNonSpecInsts              15388                       # Number of dispatched non-speculative instructions
system.cpu.iew.iewIQFullEvents                   1252                       # Number of times the IQ has become full, causing a stall
system.cpu.iew.iewLSQFullEvents                148561                       # Number of times the LSQ has become full, causing a stall
system.cpu.iew.memOrderViolationEvents           1235                       # Number of memory order violations
system.cpu.iew.predictedTakenIncorrect          16125                       # Number of branches that were predicted taken incorrectly
system.cpu.iew.predictedNotTakenIncorrect        54301                       # Number of branches that were predicted not taken incorrectly
system.cpu.iew.branchMispredicts                70426                       # Number of branch mispredicts detected at execute
system.cpu.iew.iewExecutedInsts               2448837                       # Number of executed instructions
system.cpu.iew.iewExecLoadInsts                350629                       # Number of load instructions executed
system.cpu.iew.iewExecSquashedInsts            106866                       # Number of squashed instructions skipped in execute
system.cpu.iew.exec_swp                             0                       # number of swp insts executed
system.cpu.iew.exec_nop                             0                       # number of nop insts executed
system.cpu.iew.exec_refs                       576103                       # number of memory reference insts executed
system.cpu.iew.exec_branches                   243046                       # Number of branches executed
system.cpu.iew.exec_stores                     225474                       # Number of stores executed
system.cpu.iew.exec_rate                     0.983925                       # Inst execution rate
system.cpu.iew.wb_sent                        2419842                       # cumulative count of insts sent to commit
system.cpu.iew.wb_count                       2402009                       # cumulative count of insts written-back
system.cpu.iew.wb_producers                   1581061                       # num instructions producing a value
system.cpu.iew.wb_consumers                   2538175                       # num instructions consuming a value
system.cpu.iew.wb_rate                       0.965110                       # insts written-back per cycle
system.cpu.iew.wb_fanout                     0.622913                       # average fanout of values written-back
system.cpu.commit.commitSquashedInsts         1227560                       # The number of squashed insts skipped by commit
system.cpu.commit.commitNonSpecStalls           11669                       # The number of times commit has been forced to stall to communicate backwards
system.cpu.commit.branchMispredicts             54630                       # The number of times a branch was mispredicted
system.cpu.commit.committed_per_cycle::samples      2137632                       # Number of insts commited each cycle
system.cpu.commit.committed_per_cycle::mean     0.824220                       # Number of insts commited each cycle
system.cpu.commit.committed_per_cycle::stdev     1.905184                       # Number of insts commited each cycle
system.cpu.commit.committed_per_cycle::underflows            0      0.00%      0.00% # Number of insts commited each cycle
system.cpu.commit.committed_per_cycle::0      1604350     75.05%     75.05% # Number of insts commited each cycle
system.cpu.commit.committed_per_cycle::1       190886      8.93%     83.98% # Number of insts commited each cycle
system.cpu.commit.committed_per_cycle::2        77167      3.61%     87.59% # Number of insts commited each cycle
system.cpu.commit.committed_per_cycle::3        78228      3.66%     91.25% # Number of insts commited each cycle
system.cpu.commit.committed_per_cycle::4        45237      2.12%     93.37% # Number of insts commited each cycle
system.cpu.commit.committed_per_cycle::5        28778      1.35%     94.71% # Number of insts commited each cycle
system.cpu.commit.committed_per_cycle::6        17258      0.81%     95.52% # Number of insts commited each cycle
system.cpu.commit.committed_per_cycle::7        12236      0.57%     96.09% # Number of insts commited each cycle
system.cpu.commit.committed_per_cycle::8        83492      3.91%    100.00% # Number of insts commited each cycle
system.cpu.commit.committed_per_cycle::overflows            0      0.00%    100.00% # Number of insts commited each cycle
system.cpu.commit.committed_per_cycle::min_value            0                       # Number of insts commited each cycle
system.cpu.commit.committed_per_cycle::max_value            8                       # Number of insts commited each cycle
system.cpu.commit.committed_per_cycle::total      2137632                       # Number of insts commited each cycle
system.cpu.commit.committedInsts               941207                       # Number of instructions committed
system.cpu.commit.committedOps                1761878                       # Number of ops (including micro ops) committed
system.cpu.commit.swp_count                         0                       # Number of s/w prefetches committed
system.cpu.commit.refs                         448831                       # Number of memory references committed
system.cpu.commit.loads                        258086                       # Number of loads committed
system.cpu.commit.membars                        1114                       # Number of memory barriers committed
system.cpu.commit.branches                     188660                       # Number of branches committed
system.cpu.commit.vec_insts                         0                       # Number of committed Vector instructions.
system.cpu.commit.fp_insts                       2404                       # Number of committed floating point instructions.
system.cpu.commit.int_insts                   1744129                       # Number of committed integer instructions.
system.cpu.commit.function_calls                19893                       # Number of function calls committed.
system.cpu.commit.op_class_0::No_OpClass        14780      0.84%      0.84% # Class of committed instruction
system.cpu.commit.op_class_0::IntAlu          1293519     73.42%     74.26% # Class of committed instruction
system.cpu.commit.op_class_0::IntMult            1274      0.07%     74.33% # Class of committed instruction
system.cpu.commit.op_class_0::IntDiv             1652      0.09%     74.42% # Class of committed instruction
system.cpu.commit.op_class_0::FloatAdd           1822      0.10%     74.53% # Class of committed instruction
system.cpu.commit.op_class_0::FloatCmp              0      0.00%     74.53% # Class of committed instruction
system.cpu.commit.op_class_0::FloatCvt              0      0.00%     74.53% # Class of committed instruction
system.cpu.commit.op_class_0::FloatMult             0      0.00%     74.53% # Class of committed instruction
system.cpu.commit.op_class_0::FloatMultAcc            0      0.00%     74.53% # Class of committed instruction
system.cpu.commit.op_class_0::FloatDiv              0      0.00%     74.53% # Class of committed instruction
system.cpu.commit.op_class_0::FloatMisc             0      0.00%     74.53% # Class of committed instruction
system.cpu.commit.op_class_0::FloatSqrt             0      0.00%     74.53% # Class of committed instruction
system.cpu.commit.op_class_0::SimdAdd               0      0.00%     74.53% # Class of committed instruction
system.cpu.commit.op_class_0::SimdAddAcc            0      0.00%     74.53% # Class of committed instruction
system.cpu.commit.op_class_0::SimdAlu               0      0.00%     74.53% # Class of committed instruction
system.cpu.commit.op_class_0::SimdCmp               0      0.00%     74.53% # Class of committed instruction
system.cpu.commit.op_class_0::SimdCvt               0      0.00%     74.53% # Class of committed instruction
system.cpu.commit.op_class_0::SimdMisc              0      0.00%     74.53% # Class of committed instruction
system.cpu.commit.op_class_0::SimdMult              0      0.00%     74.53% # Class of committed instruction
system.cpu.commit.op_class_0::SimdMultAcc            0      0.00%     74.53% # Class of committed instruction
system.cpu.commit.op_class_0::SimdShift             0      0.00%     74.53% # Class of committed instruction
system.cpu.commit.op_class_0::SimdShiftAcc            0      0.00%     74.53% # Class of committed instruction
system.cpu.commit.op_class_0::SimdSqrt              0      0.00%     74.53% # Class of committed instruction
system.cpu.commit.op_class_0::SimdFloatAdd            0      0.00%     74.53% # Class of committed instruction
system.cpu.commit.op_class_0::SimdFloatAlu            0      0.00%     74.53% # Class of committed instruction
system.cpu.commit.op_class_0::SimdFloatCmp            0      0.00%     74.53% # Class of committed instruction
system.cpu.commit.op_class_0::SimdFloatCvt            0      0.00%     74.53% # Class of committed instruction
system.cpu.commit.op_class_0::SimdFloatDiv            0      0.00%     74.53% # Class of committed instruction
system.cpu.commit.op_class_0::SimdFloatMisc            0      0.00%     74.53% # Class of committed instruction
system.cpu.commit.op_class_0::SimdFloatMult            0      0.00%     74.53% # Class of committed instruction
system.cpu.commit.op_class_0::SimdFloatMultAcc            0      0.00%     74.53% # Class of committed instruction
system.cpu.commit.op_class_0::SimdFloatSqrt            0      0.00%     74.53% # Class of committed instruction
system.cpu.commit.op_class_0::MemRead          257632     14.62%     89.15% # Class of committed instruction
system.cpu.commit.op_class_0::MemWrite         190745     10.83%     99.97% # Class of committed instruction
system.cpu.commit.op_class_0::FloatMemRead          454      0.03%    100.00% # Class of committed instruction
system.cpu.commit.op_class_0::FloatMemWrite            0      0.00%    100.00% # Class of committed instruction
system.cpu.commit.op_class_0::IprAccess             0      0.00%    100.00% # Class of committed instruction
system.cpu.commit.op_class_0::InstPrefetch            0      0.00%    100.00% # Class of committed instruction
system.cpu.commit.op_class_0::total           1761878                       # Class of committed instruction
system.cpu.commit.bw_lim_events                 83492                       # number cycles where commit BW limit reached
system.cpu.rob.rob_reads                      5037997                       # The number of ROB reads
system.cpu.rob.rob_writes                     6185227                       # The number of ROB writes
system.cpu.timesIdled                            7339                       # Number of times that the entire CPU went into an idle state and unscheduled itself
system.cpu.idleCycles                          148805                       # Total number of cycles that the CPU has spent unscheduled due to idling
system.cpu.committedInsts                      941207                       # Number of Instructions Simulated
system.cpu.committedOps                       1761878                       # Number of Ops (including micro ops) Simulated
system.cpu.cpi                               2.644312                       # CPI: Cycles Per Instruction
system.cpu.cpi_total                         2.644312                       # CPI: Total CPI of All Threads
system.cpu.ipc                               0.378170                       # IPC: Instructions Per Cycle
system.cpu.ipc_total                         0.378170                       # IPC: Total IPC of All Threads
system.cpu.int_regfile_reads                  3618607                       # number of integer regfile reads
system.cpu.int_regfile_writes                 1915756                       # number of integer regfile writes
system.cpu.fp_regfile_reads                      6501                       # number of floating regfile reads
system.cpu.fp_regfile_writes                     3434                       # number of floating regfile writes
system.cpu.cc_regfile_reads                   1093933                       # number of cc regfile reads
system.cpu.cc_regfile_writes                   708445                       # number of cc regfile writes
system.cpu.misc_regfile_reads                 1109677                       # number of misc regfile reads
system.cpu.misc_regfile_writes                  13121                       # number of misc regfile writes
system.cpu.dcache.tags.pwrStateResidencyTicks::UNDEFINED 4803291731000                       # Cumulative time (in ticks) in various power states
system.cpu.dcache.tags.replacements             21296                       # number of replacements
system.cpu.dcache.tags.tagsinuse                 1024                       # Cycle average of tags in use
system.cpu.dcache.tags.total_refs              452687                       # Total number of references to valid blocks.
system.cpu.dcache.tags.sampled_refs             21296                       # Sample count of references to valid blocks.
system.cpu.dcache.tags.avg_refs             21.256903                       # Average number of references to valid blocks.
system.cpu.dcache.tags.warmup_cycle                 0                       # Cycle when the warmup percentage was hit.
system.cpu.dcache.tags.occ_blocks::cpu.data         1024                       # Average occupied blocks per requestor
system.cpu.dcache.tags.occ_percent::cpu.data            1                       # Average percentage of cache occupancy
system.cpu.dcache.tags.occ_percent::total            1                       # Average percentage of cache occupancy
system.cpu.dcache.tags.occ_task_id_blocks::1024         1024                       # Occupied blocks per task id
system.cpu.dcache.tags.age_task_id_blocks_1024::0           52                       # Occupied blocks per task id
system.cpu.dcache.tags.age_task_id_blocks_1024::1          742                       # Occupied blocks per task id
system.cpu.dcache.tags.age_task_id_blocks_1024::2          229                       # Occupied blocks per task id
system.cpu.dcache.tags.age_task_id_blocks_1024::3            1                       # Occupied blocks per task id
system.cpu.dcache.tags.occ_task_id_percent::1024            1                       # Percentage of cache occupancy per task id
system.cpu.dcache.tags.tag_accesses           1032436                       # Number of tag accesses
system.cpu.dcache.tags.data_accesses          1032436                       # Number of data accesses
system.cpu.dcache.pwrStateResidencyTicks::UNDEFINED 4803291731000                       # Cumulative time (in ticks) in various power states
system.cpu.dcache.ReadReq_hits::cpu.data       289744                       # number of ReadReq hits
system.cpu.dcache.ReadReq_hits::total          289744                       # number of ReadReq hits
system.cpu.dcache.WriteReq_hits::cpu.data       181650                       # number of WriteReq hits
system.cpu.dcache.WriteReq_hits::total         181650                       # number of WriteReq hits
system.cpu.dcache.SoftPFReq_hits::cpu.data          554                       # number of SoftPFReq hits
system.cpu.dcache.SoftPFReq_hits::total           554                       # number of SoftPFReq hits
system.cpu.dcache.demand_hits::cpu.data        471394                       # number of demand (read+write) hits
system.cpu.dcache.demand_hits::total           471394                       # number of demand (read+write) hits
system.cpu.dcache.overall_hits::cpu.data       471948                       # number of overall hits
system.cpu.dcache.overall_hits::total          471948                       # number of overall hits
system.cpu.dcache.ReadReq_misses::cpu.data        21642                       # number of ReadReq misses
system.cpu.dcache.ReadReq_misses::total         21642                       # number of ReadReq misses
system.cpu.dcache.WriteReq_misses::cpu.data         9038                       # number of WriteReq misses
system.cpu.dcache.WriteReq_misses::total         9038                       # number of WriteReq misses
system.cpu.dcache.SoftPFReq_misses::cpu.data         2942                       # number of SoftPFReq misses
system.cpu.dcache.SoftPFReq_misses::total         2942                       # number of SoftPFReq misses
system.cpu.dcache.demand_misses::cpu.data        30680                       # number of demand (read+write) misses
system.cpu.dcache.demand_misses::total          30680                       # number of demand (read+write) misses
system.cpu.dcache.overall_misses::cpu.data        33622                       # number of overall misses
system.cpu.dcache.overall_misses::total         33622                       # number of overall misses
system.cpu.dcache.ReadReq_miss_latency::cpu.data    287566000                       # number of ReadReq miss cycles
system.cpu.dcache.ReadReq_miss_latency::total    287566000                       # number of ReadReq miss cycles
system.cpu.dcache.WriteReq_miss_latency::cpu.data    161926486                       # number of WriteReq miss cycles
system.cpu.dcache.WriteReq_miss_latency::total    161926486                       # number of WriteReq miss cycles
system.cpu.dcache.demand_miss_latency::cpu.data    449492486                       # number of demand (read+write) miss cycles
system.cpu.dcache.demand_miss_latency::total    449492486                       # number of demand (read+write) miss cycles
system.cpu.dcache.overall_miss_latency::cpu.data    449492486                       # number of overall miss cycles
[...]
system.l2cache.demand_mshr_misses::total         1548                       # number of demand (read+write) MSHR misses
system.l2cache.overall_mshr_misses::cpu.inst          535                       # number of overall MSHR misses
system.l2cache.overall_mshr_misses::cpu.data         1013                       # number of overall MSHR misses
system.l2cache.overall_mshr_misses::total         1548                       # number of overall MSHR misses
system.l2cache.ReadReq_mshr_uncacheable::cpu.data          347                       # number of ReadReq MSHR uncacheable
system.l2cache.ReadReq_mshr_uncacheable::total          347                       # number of ReadReq MSHR uncacheable
system.l2cache.WriteReq_mshr_uncacheable::cpu.data          129                       # number of WriteReq MSHR uncacheable
system.l2cache.WriteReq_mshr_uncacheable::total          129                       # number of WriteReq MSHR uncacheable
system.l2cache.overall_mshr_uncacheable_misses::cpu.data          476                       # number of overall MSHR uncacheable misses
system.l2cache.overall_mshr_uncacheable_misses::total          476                       # number of overall MSHR uncacheable misses
system.l2cache.UpgradeReq_mshr_miss_latency::cpu.data     12439997                       # number of UpgradeReq MSHR miss cycles
system.l2cache.UpgradeReq_mshr_miss_latency::total     12439997                       # number of UpgradeReq MSHR miss cycles
system.l2cache.ReadExReq_mshr_miss_latency::cpu.data     47478500                       # number of ReadExReq MSHR miss cycles
system.l2cache.ReadExReq_mshr_miss_latency::total     47478500                       # number of ReadExReq MSHR miss cycles
system.l2cache.ReadSharedReq_mshr_miss_latency::cpu.inst     43911500                       # number of ReadSharedReq MSHR miss cycles
system.l2cache.ReadSharedReq_mshr_miss_latency::cpu.data     26089500                       # number of ReadSharedReq MSHR miss cycles
system.l2cache.ReadSharedReq_mshr_miss_latency::total     70001000                       # number of ReadSharedReq MSHR miss cycles
system.l2cache.demand_mshr_miss_latency::cpu.inst     43911500                       # number of demand (read+write) MSHR miss cycles
system.l2cache.demand_mshr_miss_latency::cpu.data     73568000                       # number of demand (read+write) MSHR miss cycles
system.l2cache.demand_mshr_miss_latency::total    117479500                       # number of demand (read+write) MSHR miss cycles
system.l2cache.overall_mshr_miss_latency::cpu.inst     43911500                       # number of overall MSHR miss cycles
system.l2cache.overall_mshr_miss_latency::cpu.data     73568000                       # number of overall MSHR miss cycles
system.l2cache.overall_mshr_miss_latency::total    117479500                       # number of overall MSHR miss cycles
system.l2cache.ReadReq_mshr_uncacheable_latency::cpu.data     75819500                       # number of ReadReq MSHR uncacheable cycles
system.l2cache.ReadReq_mshr_uncacheable_latency::total     75819500                       # number of ReadReq MSHR uncacheable cycles
system.l2cache.overall_mshr_uncacheable_latency::cpu.data     75819500                       # number of overall MSHR uncacheable cycles
system.l2cache.overall_mshr_uncacheable_latency::total     75819500                       # number of overall MSHR uncacheable cycles
system.l2cache.UpgradeReq_mshr_miss_rate::cpu.data     0.946844                       # mshr miss rate for UpgradeReq accesses
system.l2cache.UpgradeReq_mshr_miss_rate::total     0.946844                       # mshr miss rate for UpgradeReq accesses
system.l2cache.ReadExReq_mshr_miss_rate::cpu.data     0.057852                       # mshr miss rate for ReadExReq accesses
system.l2cache.ReadExReq_mshr_miss_rate::total     0.057852                       # mshr miss rate for ReadExReq accesses
system.l2cache.ReadSharedReq_mshr_miss_rate::cpu.inst     0.016309                       # mshr miss rate for ReadSharedReq accesses
system.l2cache.ReadSharedReq_mshr_miss_rate::cpu.data     0.011283                       # mshr miss rate for ReadSharedReq accesses
system.l2cache.ReadSharedReq_mshr_miss_rate::total     0.014373                       # mshr miss rate for ReadSharedReq accesses
system.l2cache.demand_mshr_miss_rate::cpu.inst     0.016309                       # mshr miss rate for demand accesses
system.l2cache.demand_mshr_miss_rate::cpu.data     0.029741                       # mshr miss rate for demand accesses
system.l2cache.demand_mshr_miss_rate::total     0.023151                       # mshr miss rate for demand accesses
system.l2cache.overall_mshr_miss_rate::cpu.inst     0.016309                       # mshr miss rate for overall accesses
system.l2cache.overall_mshr_miss_rate::cpu.data     0.029741                       # mshr miss rate for overall accesses
system.l2cache.overall_mshr_miss_rate::total     0.023151                       # mshr miss rate for overall accesses
system.l2cache.UpgradeReq_avg_mshr_miss_latency::cpu.data 14549.704094                       # average UpgradeReq mshr miss latency
system.l2cache.UpgradeReq_avg_mshr_miss_latency::total 14549.704094                       # average UpgradeReq mshr miss latency
system.l2cache.ReadExReq_avg_mshr_miss_latency::cpu.data 60791.933419                       # average ReadExReq mshr miss latency
system.l2cache.ReadExReq_avg_mshr_miss_latency::total 60791.933419                       # average ReadExReq mshr miss latency
system.l2cache.ReadSharedReq_avg_mshr_miss_latency::cpu.inst 82077.570093                       # average ReadSharedReq mshr miss latency
system.l2cache.ReadSharedReq_avg_mshr_miss_latency::cpu.data 112454.741379                       # average ReadSharedReq mshr miss latency
system.l2cache.ReadSharedReq_avg_mshr_miss_latency::total 91265.971317                       # average ReadSharedReq mshr miss latency
system.l2cache.demand_avg_mshr_miss_latency::cpu.inst 82077.570093                       # average overall mshr miss latency
system.l2cache.demand_avg_mshr_miss_latency::cpu.data 72623.889437                       # average overall mshr miss latency
system.l2cache.demand_avg_mshr_miss_latency::total 75891.149871                       # average overall mshr miss latency
system.l2cache.overall_avg_mshr_miss_latency::cpu.inst 82077.570093                       # average overall mshr miss latency
system.l2cache.overall_avg_mshr_miss_latency::cpu.data 72623.889437                       # average overall mshr miss latency
system.l2cache.overall_avg_mshr_miss_latency::total 75891.149871                       # average overall mshr miss latency
system.l2cache.ReadReq_avg_mshr_uncacheable_latency::cpu.data       218500                       # average ReadReq mshr uncacheable latency
system.l2cache.ReadReq_avg_mshr_uncacheable_latency::total       218500                       # average ReadReq mshr uncacheable latency
system.l2cache.overall_avg_mshr_uncacheable_latency::cpu.data 159284.663866                       # average overall mshr uncacheable latency
system.l2cache.overall_avg_mshr_uncacheable_latency::total 159284.663866                       # average overall mshr uncacheable latency
system.membus.snoop_filter.tot_requests         37561                       # Total number of requests made to the snoop filter.
system.membus.snoop_filter.hit_single_requests        36154                       # Number of requests hitting in the snoop filter with a single holder of the requested data.
system.membus.snoop_filter.hit_multi_requests            0                       # Number of requests hitting in the snoop filter with multiple (>1) holders of the requested data.
system.membus.snoop_filter.tot_snoops               0                       # Total number of snoops made to the snoop filter.
system.membus.snoop_filter.hit_single_snoops            0                       # Number of snoops hitting in the snoop filter with a single holder of the requested data.
system.membus.snoop_filter.hit_multi_snoops            0                       # Number of snoops hitting in the snoop filter with multiple (>1) holders of the requested data.
system.membus.pwrStateResidencyTicks::UNDEFINED 4803940748500                       # Cumulative time (in ticks) in various power states
system.membus.trans_dist::ReadReq               37589                       # Transaction distribution
system.membus.trans_dist::ReadResp              38356                       # Transaction distribution
system.membus.trans_dist::WriteReq                129                       # Transaction distribution
system.membus.trans_dist::WriteResp               129                       # Transaction distribution
system.membus.trans_dist::WritebackDirty          654                       # Transaction distribution
system.membus.trans_dist::CleanEvict              641                       # Transaction distribution
system.membus.trans_dist::UpgradeReq              996                       # Transaction distribution
system.membus.trans_dist::ReadExReq               640                       # Transaction distribution
system.membus.trans_dist::ReadExResp              640                       # Transaction distribution
system.membus.trans_dist::ReadSharedReq           767                       # Transaction distribution
system.membus.trans_dist::MessageReq              117                       # Transaction distribution
system.membus.trans_dist::MessageResp             117                       # Transaction distribution
system.membus.pkt_count_system.apicbridge.master::system.cpu.interrupts.int_slave          234                       # Packet count per connected master and slave (bytes)
system.membus.pkt_count_system.apicbridge.master::total          234                       # Packet count per connected master and slave (bytes)
system.membus.pkt_count_system.l2cache.mem_side::system.bridge.slave          936                       # Packet count per connected master and slave (bytes)
system.membus.pkt_count_system.l2cache.mem_side::system.mem_cntrl.port         5105                       # Packet count per connected master and slave (bytes)
system.membus.pkt_count_system.l2cache.mem_side::system.cpu.interrupts.pio           16                       # Packet count per connected master and slave (bytes)
system.membus.pkt_count_system.l2cache.mem_side::total         6057                       # Packet count per connected master and slave (bytes)
system.membus.pkt_count_system.cpu.itb.walker.port::system.mem_cntrl.port         8359                       # Packet count per connected master and slave (bytes)
system.membus.pkt_count_system.cpu.itb.walker.port::total         8359                       # Packet count per connected master and slave (bytes)
system.membus.pkt_count_system.cpu.dtb.walker.port::system.mem_cntrl.port        32310                       # Packet count per connected master and slave (bytes)
system.membus.pkt_count_system.cpu.dtb.walker.port::total        32310                       # Packet count per connected master and slave (bytes)
system.membus.pkt_count::total                  46960                       # Packet count per connected master and slave (bytes)
system.membus.pkt_size_system.apicbridge.master::system.cpu.interrupts.int_slave          468                       # Cumulative packet size per connected master and slave (bytes)
system.membus.pkt_size_system.apicbridge.master::total          468                       # Cumulative packet size per connected master and slave (bytes)
system.membus.pkt_size_system.l2cache.mem_side::system.bridge.slave          468                       # Cumulative packet size per connected master and slave (bytes)
system.membus.pkt_size_system.l2cache.mem_side::system.mem_cntrl.port       131904                       # Cumulative packet size per connected master and slave (bytes)
system.membus.pkt_size_system.l2cache.mem_side::system.cpu.interrupts.pio           32                       # Cumulative packet size per connected master and slave (bytes)
system.membus.pkt_size_system.l2cache.mem_side::total       132404                       # Cumulative packet size per connected master and slave (bytes)
system.membus.pkt_size_system.cpu.itb.walker.port::system.mem_cntrl.port          664                       # Cumulative packet size per connected master and slave (bytes)
system.membus.pkt_size_system.cpu.itb.walker.port::total          664                       # Cumulative packet size per connected master and slave (bytes)
system.membus.pkt_size_system.cpu.dtb.walker.port::system.mem_cntrl.port        26752                       # Cumulative packet size per connected master and slave (bytes)
system.membus.pkt_size_system.cpu.dtb.walker.port::total        26752                       # Cumulative packet size per connected master and slave (bytes)
system.membus.pkt_size::total                  160288                       # Cumulative packet size per connected master and slave (bytes)
system.membus.snoops                            33815                       # Total snoops (count)
system.membus.snoopTraffic                     270520                       # Total snoop traffic (bytes)
system.membus.snoop_fanout::samples             40238                       # Request fanout histogram
system.membus.snoop_fanout::mean             0.841568                       # Request fanout histogram
system.membus.snoop_fanout::stdev            0.365150                       # Request fanout histogram
system.membus.snoop_fanout::underflows              0      0.00%      0.00% # Request fanout histogram
system.membus.snoop_fanout::0                    6375     15.84%     15.84% # Request fanout histogram
system.membus.snoop_fanout::1                   33863     84.16%    100.00% # Request fanout histogram
system.membus.snoop_fanout::2                       0      0.00%    100.00% # Request fanout histogram
system.membus.snoop_fanout::overflows               0      0.00%    100.00% # Request fanout histogram
system.membus.snoop_fanout::min_value               0                       # Request fanout histogram
system.membus.snoop_fanout::max_value               1                       # Request fanout histogram
system.membus.snoop_fanout::total               40238                       # Request fanout histogram
system.membus.reqLayer0.occupancy              294500                       # Layer occupancy (ticks)
system.membus.reqLayer0.utilization               0.0                       # Layer utilization (%)
system.membus.reqLayer1.occupancy            21779996                       # Layer occupancy (ticks)
system.membus.reqLayer1.utilization               1.2                       # Layer utilization (%)
system.membus.reqLayer2.occupancy                8000                       # Layer occupancy (ticks)
system.membus.reqLayer2.utilization               0.0                       # Layer utilization (%)
system.membus.reqLayer3.occupancy              117000                       # Layer occupancy (ticks)
system.membus.reqLayer3.utilization               0.0                       # Layer utilization (%)
system.membus.respLayer1.occupancy              58500                       # Layer occupancy (ticks)
system.membus.respLayer1.utilization              0.0                       # Layer utilization (%)
system.membus.respLayer3.occupancy            4185999                       # Layer occupancy (ticks)
system.membus.respLayer3.utilization              0.2                       # Layer utilization (%)
system.membus.respLayer4.occupancy            8421986                       # Layer occupancy (ticks)
system.membus.respLayer4.utilization              0.4                       # Layer utilization (%)
system.membus.respLayer5.occupancy           29695681                       # Layer occupancy (ticks)
system.membus.respLayer5.utilization              1.6                       # Layer utilization (%)
system.membus.badaddr_responder.pwrStateResidencyTicks::UNDEFINED 4803940748500                       # Cumulative time (in ticks) in various power states
system.pc.behind_pci.pwrStateResidencyTicks::UNDEFINED 4803940748500                       # Cumulative time (in ticks) in various power states
system.pc.com_1.pwrStateResidencyTicks::UNDEFINED 4803940748500                       # Cumulative time (in ticks) in various power states
system.pc.fake_com_2.pwrStateResidencyTicks::UNDEFINED 4803940748500                       # Cumulative time (in ticks) in various power states
system.pc.fake_com_3.pwrStateResidencyTicks::UNDEFINED 4803940748500                       # Cumulative time (in ticks) in various power states
system.pc.fake_com_4.pwrStateResidencyTicks::UNDEFINED 4803940748500                       # Cumulative time (in ticks) in various power states
system.pc.fake_floppy.pwrStateResidencyTicks::UNDEFINED 4803940748500                       # Cumulative time (in ticks) in various power states
system.pc.i_dont_exist1.pwrStateResidencyTicks::UNDEFINED 4803940748500                       # Cumulative time (in ticks) in various power states
system.pc.i_dont_exist2.pwrStateResidencyTicks::UNDEFINED 4803940748500                       # Cumulative time (in ticks) in various power states
system.pc.pci_host.pwrStateResidencyTicks::UNDEFINED 4803940748500                       # Cumulative time (in ticks) in various power states
system.pc.south_bridge.cmos.pwrStateResidencyTicks::UNDEFINED 4803940748500                       # Cumulative time (in ticks) in various power states
system.pc.south_bridge.dma1.pwrStateResidencyTicks::UNDEFINED 4803940748500                       # Cumulative time (in ticks) in various power states
system.pc.south_bridge.pic2.pwrStateResidencyTicks::UNDEFINED 4803940748500                       # Cumulative time (in ticks) in various power states
system.pc.south_bridge.pic1.pwrStateResidencyTicks::UNDEFINED 4803940748500                       # Cumulative time (in ticks) in various power states
system.pc.south_bridge.io_apic.pwrStateResidencyTicks::UNDEFINED 4803940748500                       # Cumulative time (in ticks) in various power states
system.pc.south_bridge.keyboard.pwrStateResidencyTicks::UNDEFINED 4803940748500                       # Cumulative time (in ticks) in various power states
system.pc.south_bridge.pit.pwrStateResidencyTicks::UNDEFINED 4803940748500                       # Cumulative time (in ticks) in various power states
system.pc.south_bridge.speaker.pwrStateResidencyTicks::UNDEFINED 4803940748500                       # Cumulative time (in ticks) in various power states
system.pc.south_bridge.ide.disks.dma_read_full_pages            0                       # Number of full page size DMA reads (not PRD).
system.pc.south_bridge.ide.disks.dma_read_bytes            0                       # Number of bytes transfered via DMA reads (not PRD).
system.pc.south_bridge.ide.disks.dma_read_txs            0                       # Number of DMA read transactions (not PRD).
system.pc.south_bridge.ide.disks.dma_write_full_pages            0                       # Number of full page size DMA writes.
system.pc.south_bridge.ide.disks.dma_write_bytes            0                       # Number of bytes transfered via DMA writes.
system.pc.south_bridge.ide.disks.dma_write_txs            0                       # Number of DMA write transactions.
system.pc.south_bridge.ide.pwrStateResidencyTicks::UNDEFINED 4803940748500                       # Cumulative time (in ticks) in various power states
system.cpu.kern.inst.arm                            0                       # number of arm instructions executed
system.cpu.kern.inst.quiesce                        0                       # number of quiesce instructions executed

---------- End Simulation Statistics   ----------
