
---------- Begin Simulation Statistics ----------
sim_seconds                                  0.001218                       # Number of seconds simulated
sim_ticks                                  1217803000                       # Number of ticks simulated
final_tick                               4791246546500                       # Number of ticks from beginning of simulation (restored from checkpoints and never reset)
sim_freq                                 1000000000000                       # Frequency of simulated ticks
host_inst_rate                              137573361                       # Simulator instruction rate (inst/s)
host_op_rate                                321492085                       # Simulator op (including micro ops) rate (op/s)
host_tick_rate                              112801940                       # Simulator tick rate (ticks/s)
host_mem_usage                                1465980                       # Number of bytes of host memory used
host_seconds                                    10.80                       # Real time elapsed on the host
sim_insts                                  1485230872                       # Number of instructions simulated
sim_ops                                    3470806186                       # Number of ops (including micro ops) simulated
system.clk_domain.voltage_domain.voltage            1                       # Voltage in Volts
system.clk_domain.clock                           500                       # Clock period in ticks
system.mem_cntrl.pwrStateResidencyTicks::UNDEFINED 4791246546500                       # Cumulative time (in ticks) in various power states
system.mem_cntrl.bytes_read::cpu.dtb.walker        16144                       # Number of bytes read from this memory
system.mem_cntrl.bytes_read::cpu.itb.walker          328                       # Number of bytes read from this memory
system.mem_cntrl.bytes_read::cpu.inst           29376                       # Number of bytes read from this memory
system.mem_cntrl.bytes_read::cpu.data           38464                       # Number of bytes read from this memory
system.mem_cntrl.bytes_read::total              84312                       # Number of bytes read from this memory
system.mem_cntrl.bytes_inst_read::cpu.inst        29376                       # Number of instructions bytes read from this memory
system.mem_cntrl.bytes_inst_read::total         29376                       # Number of instructions bytes read from this memory
system.mem_cntrl.bytes_written::writebacks        29696                       # Number of bytes written to this memory
system.mem_cntrl.bytes_written::total           29696                       # Number of bytes written to this memory
system.mem_cntrl.num_reads::cpu.dtb.walker         2018                       # Number of read requests responded to by this memory
system.mem_cntrl.num_reads::cpu.itb.walker           41                       # Number of read requests responded to by this memory
system.mem_cntrl.num_reads::cpu.inst              459                       # Number of read requests responded to by this memory
system.mem_cntrl.num_reads::cpu.data              601                       # Number of read requests responded to by this memory
system.mem_cntrl.num_reads::total                3119                       # Number of read requests responded to by this memory
system.mem_cntrl.num_writes::writebacks           464                       # Number of write requests responded to by this memory
system.mem_cntrl.num_writes::total                464                       # Number of write requests responded to by this memory
system.mem_cntrl.bw_read::cpu.dtb.walker     13256660                       # Total read bandwidth from this memory (bytes/s)
system.mem_cntrl.bw_read::cpu.itb.walker       269337                       # Total read bandwidth from this memory (bytes/s)
system.mem_cntrl.bw_read::cpu.inst           24122128                       # Total read bandwidth from this memory (bytes/s)
system.mem_cntrl.bw_read::cpu.data           31584747                       # Total read bandwidth from this memory (bytes/s)
system.mem_cntrl.bw_read::total              69232873                       # Total read bandwidth from this memory (bytes/s)
system.mem_cntrl.bw_inst_read::cpu.inst      24122128                       # Instruction read bandwidth from this memory (bytes/s)
system.mem_cntrl.bw_inst_read::total         24122128                       # Instruction read bandwidth from this memory (bytes/s)
system.mem_cntrl.bw_write::writebacks        24384896                       # Write bandwidth from this memory (bytes/s)
system.mem_cntrl.bw_write::total             24384896                       # Write bandwidth from this memory (bytes/s)
system.mem_cntrl.bw_total::writebacks        24384896                       # Total bandwidth to/from this memory (bytes/s)
system.mem_cntrl.bw_total::cpu.dtb.walker     13256660                       # Total bandwidth to/from this memory (bytes/s)
system.mem_cntrl.bw_total::cpu.itb.walker       269337                       # Total bandwidth to/from this memory (bytes/s)
system.mem_cntrl.bw_total::cpu.inst          24122128                       # Total bandwidth to/from this memory (bytes/s)
system.mem_cntrl.bw_total::cpu.data          31584747                       # Total bandwidth to/from this memory (bytes/s)
system.mem_cntrl.bw_total::total             93617769                       # Total bandwidth to/from this memory (bytes/s)
system.mem_cntrl.readReqs                        3119                       # Number of read requests accepted
system.mem_cntrl.writeReqs                        464                       # Number of write requests accepted
system.mem_cntrl.readBursts                      3119                       # Number of DRAM read bursts, including those serviced by the write queue
system.mem_cntrl.writeBursts                      464                       # Number of DRAM write bursts, including those merged in the write queue
system.mem_cntrl.bytesReadDRAM                 199488                       # Total number of bytes read from DRAM
system.mem_cntrl.bytesReadWrQ                     128                       # Total number of bytes read from write queue
system.mem_cntrl.bytesWritten                   30656                       # Total number of bytes written to DRAM
system.mem_cntrl.bytesReadSys                   84312                       # Total read bytes from the system interface side
system.mem_cntrl.bytesWrittenSys                29696                       # Total written bytes from the system interface side
system.mem_cntrl.servicedByWrQ                      2                       # Number of DRAM read bursts serviced by the write queue
system.mem_cntrl.mergedWrBursts                     0                       # Number of DRAM write bursts merged with an existing one
system.mem_cntrl.neitherReadNorWriteReqs            0                       # Number of requests that are neither read nor write
system.mem_cntrl.perBankRdBursts::0                84                       # Per bank write bursts
system.mem_cntrl.perBankRdBursts::1               100                       # Per bank write bursts
system.mem_cntrl.perBankRdBursts::2                26                       # Per bank write bursts
system.mem_cntrl.perBankRdBursts::3                42                       # Per bank write bursts
system.mem_cntrl.perBankRdBursts::4               298                       # Per bank write bursts
system.mem_cntrl.perBankRdBursts::5               293                       # Per bank write bursts
system.mem_cntrl.perBankRdBursts::6               770                       # Per bank write bursts
system.mem_cntrl.perBankRdBursts::7               174                       # Per bank write bursts
system.mem_cntrl.perBankRdBursts::8               609                       # Per bank write bursts
system.mem_cntrl.perBankRdBursts::9                97                       # Per bank write bursts
system.mem_cntrl.perBankRdBursts::10              161                       # Per bank write bursts
system.mem_cntrl.perBankRdBursts::11              102                       # Per bank write bursts
system.mem_cntrl.perBankRdBursts::12               29                       # Per bank write bursts
system.mem_cntrl.perBankRdBursts::13               75                       # Per bank write bursts
system.mem_cntrl.perBankRdBursts::14              179                       # Per bank write bursts
system.mem_cntrl.perBankRdBursts::15               78                       # Per bank write bursts
system.mem_cntrl.perBankWrBursts::0                37                       # Per bank write bursts
system.mem_cntrl.perBankWrBursts::1                43                       # Per bank write bursts
system.mem_cntrl.perBankWrBursts::2                15                       # Per bank write bursts
system.mem_cntrl.perBankWrBursts::3                20                       # Per bank write bursts
system.mem_cntrl.perBankWrBursts::4                16                       # Per bank write bursts
system.mem_cntrl.perBankWrBursts::5                12                       # Per bank write bursts
system.mem_cntrl.perBankWrBursts::6                11                       # Per bank write bursts
system.mem_cntrl.perBankWrBursts::7                18                       # Per bank write bursts
system.mem_cntrl.perBankWrBursts::8                11                       # Per bank write bursts
system.mem_cntrl.perBankWrBursts::9                57                       # Per bank write bursts
system.mem_cntrl.perBankWrBursts::10               39                       # Per bank write bursts
system.mem_cntrl.perBankWrBursts::11               13                       # Per bank write bursts
system.mem_cntrl.perBankWrBursts::12               13                       # Per bank write bursts
system.mem_cntrl.perBankWrBursts::13               33                       # Per bank write bursts
system.mem_cntrl.perBankWrBursts::14               84                       # Per bank write bursts
system.mem_cntrl.perBankWrBursts::15               57                       # Per bank write bursts
system.mem_cntrl.numRdRetry                         0                       # Number of times read queue was full causing retry
system.mem_cntrl.numWrRetry                         0                       # Number of times write queue was full causing retry
system.mem_cntrl.totGap                    1217771000                       # Total gap between requests
system.mem_cntrl.readPktSize::0                     0                       # Read request sizes (log2)
system.mem_cntrl.readPktSize::1                     0                       # Read request sizes (log2)
system.mem_cntrl.readPktSize::2                     0                       # Read request sizes (log2)
system.mem_cntrl.readPktSize::3                  2059                       # Read request sizes (log2)
system.mem_cntrl.readPktSize::4                     0                       # Read request sizes (log2)
system.mem_cntrl.readPktSize::5                     0                       # Read request sizes (log2)
system.mem_cntrl.readPktSize::6                  1060                       # Read request sizes (log2)
system.mem_cntrl.writePktSize::0                    0                       # Write request sizes (log2)
system.mem_cntrl.writePktSize::1                    0                       # Write request sizes (log2)
system.mem_cntrl.writePktSize::2                    0                       # Write request sizes (log2)
system.mem_cntrl.writePktSize::3                    0                       # Write request sizes (log2)
system.mem_cntrl.writePktSize::4                    0                       # Write request sizes (log2)
system.mem_cntrl.writePktSize::5                    0                       # Write request sizes (log2)
system.mem_cntrl.writePktSize::6                  464                       # Write request sizes (log2)
system.mem_cntrl.rdQLenPdf::0                    2924                       # What read queue length does an incoming req see
system.mem_cntrl.rdQLenPdf::1                     174                       # What read queue length does an incoming req see
system.mem_cntrl.rdQLenPdf::2                      16                       # What read queue length does an incoming req see
system.mem_cntrl.rdQLenPdf::3                       3                       # What read queue length does an incoming req see
system.mem_cntrl.rdQLenPdf::4                       0                       # What read queue length does an incoming req see
system.mem_cntrl.rdQLenPdf::5                       0                       # What read queue length does an incoming req see
system.mem_cntrl.rdQLenPdf::6                       0                       # What read queue length does an incoming req see
system.mem_cntrl.rdQLenPdf::7                       0                       # What read queue length does an incoming req see
system.mem_cntrl.rdQLenPdf::8                       0                       # What read queue length does an incoming req see
system.mem_cntrl.rdQLenPdf::9                       0                       # What read queue length does an incoming req see
system.mem_cntrl.rdQLenPdf::10                      0                       # What read queue length does an incoming req see
system.mem_cntrl.rdQLenPdf::11                      0                       # What read queue length does an incoming req see
system.mem_cntrl.rdQLenPdf::12                      0                       # What read queue length does an incoming req see
system.mem_cntrl.rdQLenPdf::13                      0                       # What read queue length does an incoming req see
system.mem_cntrl.rdQLenPdf::14                      0                       # What read queue length does an incoming req see
system.mem_cntrl.rdQLenPdf::15                      0                       # What read queue length does an incoming req see
system.mem_cntrl.rdQLenPdf::16                      0                       # What read queue length does an incoming req see
system.mem_cntrl.rdQLenPdf::17                      0                       # What read queue length does an incoming req see
system.mem_cntrl.rdQLenPdf::18                      0                       # What read queue length does an incoming req see
system.mem_cntrl.rdQLenPdf::19                      0                       # What read queue length does an incoming req see
system.mem_cntrl.rdQLenPdf::20                      0                       # What read queue length does an incoming req see
system.mem_cntrl.rdQLenPdf::21                      0                       # What read queue length does an incoming req see
system.mem_cntrl.rdQLenPdf::22                      0                       # What read queue length does an incoming req see
system.mem_cntrl.rdQLenPdf::23                      0                       # What read queue length does an incoming req see
system.mem_cntrl.rdQLenPdf::24                      0                       # What read queue length does an incoming req see
system.mem_cntrl.rdQLenPdf::25                      0                       # What read queue length does an incoming req see
system.mem_cntrl.rdQLenPdf::26                      0                       # What read queue length does an incoming req see
system.mem_cntrl.rdQLenPdf::27                      0                       # What read queue length does an incoming req see
system.mem_cntrl.rdQLenPdf::28                      0                       # What read queue length does an incoming req see
system.mem_cntrl.rdQLenPdf::29                      0                       # What read queue length does an incoming req see
system.mem_cntrl.rdQLenPdf::30                      0                       # What read queue length does an incoming req see
system.mem_cntrl.rdQLenPdf::31                      0                       # What read queue length does an incoming req see
system.mem_cntrl.wrQLenPdf::0                       0                       # What write queue length does an incoming req see
system.mem_cntrl.wrQLenPdf::1                       0                       # What write queue length does an incoming req see
system.mem_cntrl.wrQLenPdf::2                       0                       # What write queue length does an incoming req see
system.mem_cntrl.wrQLenPdf::3                       0                       # What write queue length does an incoming req see
system.mem_cntrl.wrQLenPdf::4                       0                       # What write queue length does an incoming req see
system.mem_cntrl.wrQLenPdf::5                       0                       # What write queue length does an incoming req see
system.mem_cntrl.wrQLenPdf::6                       0                       # What write queue length does an incoming req see
system.mem_cntrl.wrQLenPdf::7                       0                       # What write queue length does an incoming req see
system.mem_cntrl.wrQLenPdf::8                       0                       # What write queue length does an incoming req see
system.mem_cntrl.wrQLenPdf::9                       0                       # What write queue length does an incoming req see
system.mem_cntrl.wrQLenPdf::10                      0                       # What write queue length does an incoming req see
system.mem_cntrl.wrQLenPdf::11                      0                       # What write queue length does an incoming req see
system.mem_cntrl.wrQLenPdf::12                      0                       # What write queue length does an incoming req see
system.mem_cntrl.wrQLenPdf::13                      0                       # What write queue length does an incoming req see
system.mem_cntrl.wrQLenPdf::14                      0                       # What write queue length does an incoming req see
system.mem_cntrl.wrQLenPdf::15                      7                       # What write queue length does an incoming req see
system.mem_cntrl.wrQLenPdf::16                      7                       # What write queue length does an incoming req see
system.mem_cntrl.wrQLenPdf::17                     25                       # What write queue length does an incoming req see
system.mem_cntrl.wrQLenPdf::18                     27                       # What write queue length does an incoming req see
system.mem_cntrl.wrQLenPdf::19                     28                       # What write queue length does an incoming req see
system.mem_cntrl.wrQLenPdf::20                     29                       # What write queue length does an incoming req see
system.mem_cntrl.wrQLenPdf::21                     28                       # What write queue length does an incoming req see
system.mem_cntrl.wrQLenPdf::22                     28                       # What write queue length does an incoming req see
system.mem_cntrl.wrQLenPdf::23                     28                       # What write queue length does an incoming req see
system.mem_cntrl.wrQLenPdf::24                     28                       # What write queue length does an incoming req see
system.mem_cntrl.wrQLenPdf::25                     28                       # What write queue length does an incoming req see
system.mem_cntrl.wrQLenPdf::26                     28                       # What write queue length does an incoming req see
system.mem_cntrl.wrQLenPdf::27                     29                       # What write queue length does an incoming req see
system.mem_cntrl.wrQLenPdf::28                     28                       # What write queue length does an incoming req see
system.mem_cntrl.wrQLenPdf::29                     28                       # What write queue length does an incoming req see
system.mem_cntrl.wrQLenPdf::30                     31                       # What write queue length does an incoming req see
system.mem_cntrl.wrQLenPdf::31                     28                       # What write queue length does an incoming req see
system.mem_cntrl.wrQLenPdf::32                     29                       # What write queue length does an incoming req see
system.mem_cntrl.wrQLenPdf::33                      0                       # What write queue length does an incoming req see
system.mem_cntrl.wrQLenPdf::34                      0                       # What write queue length does an incoming req see
system.mem_cntrl.wrQLenPdf::35                      0                       # What write queue length does an incoming req see
system.mem_cntrl.wrQLenPdf::36                      0                       # What write queue length does an incoming req see
system.mem_cntrl.wrQLenPdf::37                      0                       # What write queue length does an incoming req see
system.mem_cntrl.wrQLenPdf::38                      0                       # What write queue length does an incoming req see
system.mem_cntrl.wrQLenPdf::39                      0                       # What write queue length does an incoming req see
system.mem_cntrl.wrQLenPdf::40                      0                       # What write queue length does an incoming req see
system.mem_cntrl.wrQLenPdf::41                      0                       # What write queue length does an incoming req see
system.mem_cntrl.wrQLenPdf::42                      0                       # What write queue length does an incoming req see
system.mem_cntrl.wrQLenPdf::43                      0                       # What write queue length does an incoming req see
system.mem_cntrl.wrQLenPdf::44                      0                       # What write queue length does an incoming req see
system.mem_cntrl.wrQLenPdf::45                      0                       # What write queue length does an incoming req see
system.mem_cntrl.wrQLenPdf::46                      0                       # What write queue length does an incoming req see
system.mem_cntrl.wrQLenPdf::47                      0                       # What write queue length does an incoming req see
system.mem_cntrl.wrQLenPdf::48                      0                       # What write queue length does an incoming req see
system.mem_cntrl.wrQLenPdf::49                      0                       # What write queue length does an incoming req see
system.mem_cntrl.wrQLenPdf::50                      0                       # What write queue length does an incoming req see
system.mem_cntrl.wrQLenPdf::51                      0                       # What write queue length does an incoming req see
system.mem_cntrl.wrQLenPdf::52                      0                       # What write queue length does an incoming req see
system.mem_cntrl.wrQLenPdf::53                      0                       # What write queue length does an incoming req see
system.mem_cntrl.wrQLenPdf::54                      0                       # What write queue length does an incoming req see
system.mem_cntrl.wrQLenPdf::55                      0                       # What write queue length does an incoming req see
system.mem_cntrl.wrQLenPdf::56                      0                       # What write queue length does an incoming req see
system.mem_cntrl.wrQLenPdf::57                      0                       # What write queue length does an incoming req see
system.mem_cntrl.wrQLenPdf::58                      0                       # What write queue length does an incoming req see
system.mem_cntrl.wrQLenPdf::59                      0                       # What write queue length does an incoming req see
system.mem_cntrl.wrQLenPdf::60                      0                       # What write queue length does an incoming req see
system.mem_cntrl.wrQLenPdf::61                      0                       # What write queue length does an incoming req see
system.mem_cntrl.wrQLenPdf::62                      0                       # What write queue length does an incoming req see
system.mem_cntrl.wrQLenPdf::63                      0                       # What write queue length does an incoming req see
system.mem_cntrl.bytesPerActivate::samples         1033                       # Bytes accessed per row activation
system.mem_cntrl.bytesPerActivate::mean    223.473379                       # Bytes accessed per row activation
system.mem_cntrl.bytesPerActivate::gmean   137.343219                       # Bytes accessed per row activation
system.mem_cntrl.bytesPerActivate::stdev   265.364985                       # Bytes accessed per row activation
system.mem_cntrl.bytesPerActivate::0-127          499     48.31%     48.31% # Bytes accessed per row activation
system.mem_cntrl.bytesPerActivate::128-255          246     23.81%     72.12% # Bytes accessed per row activation
system.mem_cntrl.bytesPerActivate::256-383          103      9.97%     82.09% # Bytes accessed per row activation
system.mem_cntrl.bytesPerActivate::384-511           46      4.45%     86.54% # Bytes accessed per row activation
system.mem_cntrl.bytesPerActivate::512-639           31      3.00%     89.55% # Bytes accessed per row activation
system.mem_cntrl.bytesPerActivate::640-767           25      2.42%     91.97% # Bytes accessed per row activation
system.mem_cntrl.bytesPerActivate::768-895           12      1.16%     93.13% # Bytes accessed per row activation
system.mem_cntrl.bytesPerActivate::896-1023           12      1.16%     94.29% # Bytes accessed per row activation
system.mem_cntrl.bytesPerActivate::1024-1151           59      5.71%    100.00% # Bytes accessed per row activation
system.mem_cntrl.bytesPerActivate::total         1033                       # Bytes accessed per row activation
system.mem_cntrl.rdPerTurnAround::samples           29                       # Reads before turning the bus around for writes
system.mem_cntrl.rdPerTurnAround::mean     108.551724                       # Reads before turning the bus around for writes
system.mem_cntrl.rdPerTurnAround::gmean     71.790429                       # Reads before turning the bus around for writes
system.mem_cntrl.rdPerTurnAround::stdev    104.460377                       # Reads before turning the bus around for writes
system.mem_cntrl.rdPerTurnAround::16-31             5     17.24%     17.24% # Reads before turning the bus around for writes
system.mem_cntrl.rdPerTurnAround::32-47             6     20.69%     37.93% # Reads before turning the bus around for writes
system.mem_cntrl.rdPerTurnAround::48-63             4     13.79%     51.72% # Reads before turning the bus around for writes
system.mem_cntrl.rdPerTurnAround::64-79             3     10.34%     62.07% # Reads before turning the bus around for writes
system.mem_cntrl.rdPerTurnAround::80-95             1      3.45%     65.52% # Reads before turning the bus around for writes
system.mem_cntrl.rdPerTurnAround::96-111            1      3.45%     68.97% # Reads before turning the bus around for writes
system.mem_cntrl.rdPerTurnAround::112-127            1      3.45%     72.41% # Reads before turning the bus around for writes
system.mem_cntrl.rdPerTurnAround::128-143            1      3.45%     75.86% # Reads before turning the bus around for writes
system.mem_cntrl.rdPerTurnAround::160-175            1      3.45%     79.31% # Reads before turning the bus around for writes
system.mem_cntrl.rdPerTurnAround::224-239            2      6.90%     86.21% # Reads before turning the bus around for writes
system.mem_cntrl.rdPerTurnAround::256-271            1      3.45%     89.66% # Reads before turning the bus around for writes
system.mem_cntrl.rdPerTurnAround::288-303            1      3.45%     93.10% # Reads before turning the bus around for writes
system.mem_cntrl.rdPerTurnAround::352-367            1      3.45%     96.55% # Reads before turning the bus around for writes
system.mem_cntrl.rdPerTurnAround::368-383            1      3.45%    100.00% # Reads before turning the bus around for writes
system.mem_cntrl.rdPerTurnAround::total            29                       # Reads before turning the bus around for writes
system.mem_cntrl.wrPerTurnAround::samples           29                       # Writes before turning the bus around for reads
system.mem_cntrl.wrPerTurnAround::mean      16.517241                       # Writes before turning the bus around for reads
system.mem_cntrl.wrPerTurnAround::gmean     16.495863                       # Writes before turning the bus around for reads
system.mem_cntrl.wrPerTurnAround::stdev      0.870988                       # Writes before turning the bus around for reads
system.mem_cntrl.wrPerTurnAround::16               21     72.41%     72.41% # Writes before turning the bus around for reads
system.mem_cntrl.wrPerTurnAround::17                1      3.45%     75.86% # Writes before turning the bus around for reads
system.mem_cntrl.wrPerTurnAround::18                7     24.14%    100.00% # Writes before turning the bus around for reads
system.mem_cntrl.wrPerTurnAround::total            29                       # Writes before turning the bus around for reads
system.mem_cntrl.totQLat                     64916750                       # Total ticks spent queuing
system.mem_cntrl.totMemAccLat               123360500                       # Total ticks spent from burst creation until serviced by the DRAM
system.mem_cntrl.totBusLat                   15585000                       # Total ticks spent in databus transfers
system.mem_cntrl.avgQLat                     20826.68                       # Average queueing delay per DRAM burst
system.mem_cntrl.avgBusLat                    5000.00                       # Average bus latency per DRAM burst
system.mem_cntrl.avgMemAccLat                39576.68                       # Average memory access latency per DRAM burst
system.mem_cntrl.avgRdBW                       163.81                       # Average DRAM read bandwidth in MiByte/s
system.mem_cntrl.avgWrBW                        25.17                       # Average achieved write bandwidth in MiByte/s
system.mem_cntrl.avgRdBWSys                     69.23                       # Average system read bandwidth in MiByte/s
system.mem_cntrl.avgWrBWSys                     24.38                       # Average system write bandwidth in MiByte/s
system.mem_cntrl.peakBW                      12800.00                       # Theoretical peak bandwidth in MiByte/s
system.mem_cntrl.busUtil                         1.48                       # Data bus utilization in percentage
system.mem_cntrl.busUtilRead                     1.28                       # Data bus utilization in percentage for reads
system.mem_cntrl.busUtilWrite                    0.20                       # Data bus utilization in percentage for writes
system.mem_cntrl.avgRdQLen                       1.14                       # Average read queue length when enqueuing
system.mem_cntrl.avgWrQLen                      25.31                       # Average write queue length when enqueuing
system.mem_cntrl.readRowHits                     2331                       # Number of row buffer hits during reads
system.mem_cntrl.writeRowHits                     236                       # Number of row buffer hits during writes
system.mem_cntrl.readRowHitRate                 74.78                       # Row buffer hit rate for reads
system.mem_cntrl.writeRowHitRate                50.86                       # Row buffer hit rate for writes
system.mem_cntrl.avgGap                     339874.69                       # Average gap between requests
system.mem_cntrl.pageHitRate                    71.68                       # Row buffer hit rate, read and write combined
system.mem_cntrl_0.actEnergy                  4326840                       # Energy for activate commands per rank (pJ)
system.mem_cntrl_0.preEnergy                  2299770                       # Energy for precharge commands per rank (pJ)
system.mem_cntrl_0.readEnergy                12873420                       # Energy for read commands per rank (pJ)
system.mem_cntrl_0.writeEnergy                 897840                       # Energy for write commands per rank (pJ)
system.mem_cntrl_0.refreshEnergy         90966720.000000                       # Energy for refresh commands per rank (pJ)
system.mem_cntrl_0.actBackEnergy             54851670                       # Energy for active background per rank (pJ)
system.mem_cntrl_0.preBackEnergy              2936640                       # Energy for precharge background per rank (pJ)
system.mem_cntrl_0.actPowerDownEnergy       308217240                       # Energy for active power-down per rank (pJ)
system.mem_cntrl_0.prePowerDownEnergy       103874880                       # Energy for precharge power-down per rank (pJ)
system.mem_cntrl_0.selfRefreshEnergy         42044640                       # Energy for self refresh per rank (pJ)
system.mem_cntrl_0.totalEnergy              623289660                       # Total energy per rank (pJ)
system.mem_cntrl_0.averagePower            511.814850                       # Core power per rank (mW)
system.mem_cntrl_0.totalIdleTime           1090833000                       # Total Idle time Per DRAM Rank
system.mem_cntrl_0.memoryStateTime::IDLE      3648000                       # Time in different power states
system.mem_cntrl_0.memoryStateTime::REF      38552000                       # Time in different power states
system.mem_cntrl_0.memoryStateTime::SREF    149874500                       # Time in different power states
system.mem_cntrl_0.memoryStateTime::PRE_PDN    269847250                       # Time in different power states
system.mem_cntrl_0.memoryStateTime::ACT      85318750                       # Time in different power states
system.mem_cntrl_0.memoryStateTime::ACT_PDN    672857250                       # Time in different power states
system.mem_cntrl_1.actEnergy                  3063060                       # Energy for activate commands per rank (pJ)
system.mem_cntrl_1.preEnergy                  1624260                       # Energy for precharge commands per rank (pJ)
system.mem_cntrl_1.readEnergy                 9510480                       # Energy for read commands per rank (pJ)
system.mem_cntrl_1.writeEnergy                1602540                       # Energy for write commands per rank (pJ)
system.mem_cntrl_1.refreshEnergy         84820320.000000                       # Energy for refresh commands per rank (pJ)
system.mem_cntrl_1.actBackEnergy             42199380                       # Energy for active background per rank (pJ)
system.mem_cntrl_1.preBackEnergy              4010880                       # Energy for precharge background per rank (pJ)
system.mem_cntrl_1.actPowerDownEnergy       232065810                       # Energy for active power-down per rank (pJ)
system.mem_cntrl_1.prePowerDownEnergy       111479040                       # Energy for precharge power-down per rank (pJ)
system.mem_cntrl_1.selfRefreshEnergy         89493360                       # Energy for self refresh per rank (pJ)
system.mem_cntrl_1.totalEnergy              579869130                       # Total energy per rank (pJ)
system.mem_cntrl_1.averagePower            476.160044                       # Core power per rank (mW)
system.mem_cntrl_1.totalIdleTime           1114912250                       # Total Idle time Per DRAM Rank
system.mem_cntrl_1.memoryStateTime::IDLE      6924000                       # Time in different power states
system.mem_cntrl_1.memoryStateTime::REF      36036000                       # Time in different power states
system.mem_cntrl_1.memoryStateTime::SREF    317662750                       # Time in different power states
system.mem_cntrl_1.memoryStateTime::PRE_PDN    288580250                       # Time in different power states
system.mem_cntrl_1.memoryStateTime::ACT      59972500                       # Time in different power states
system.mem_cntrl_1.memoryStateTime::ACT_PDN    508865250                       # Time in different power states
system.pwrStateResidencyTicks::UNDEFINED 4791246546500                       # Cumulative time (in ticks) in various power states
system.apicbridge.pwrStateResidencyTicks::UNDEFINED 4791246546500                       # Cumulative time (in ticks) in various power states
system.bridge.pwrStateResidencyTicks::UNDEFINED 4791246546500                       # Cumulative time (in ticks) in various power states
system.cpu.branchPred.lookups                  431972                       # Number of BP lookups
system.cpu.branchPred.condPredicted            431972                       # Number of conditional branches predicted
system.cpu.branchPred.condIncorrect             50622                       # Number of conditional branches incorrect
system.cpu.branchPred.BTBLookups               332743                       # Number of BTB lookups
system.cpu.branchPred.BTBHits                       0                       # Number of BTB hits
system.cpu.branchPred.BTBCorrect                    0                       # Number of correct BTB predictions (this stat may not work properly.
system.cpu.branchPred.BTBHitPct              0.000000                       # BTB Hit Percentage
system.cpu.branchPred.usedRAS                   45138                       # Number of times the RAS was used to get a target.
system.cpu.branchPred.RASInCorrect              10526                       # Number of incorrect RAS predictions.
system.cpu.branchPred.correctpredictionPercent    88.281185                       # Correct prediction percentage
system.cpu.branchPred.indirectLookups          332743                       # Number of indirect predictor lookups.
system.cpu.branchPred.indirectHits              87064                       # Number of indirect target hits.
system.cpu.branchPred.indirectMisses           245679                       # Number of indirect misses.
system.cpu.branchPredindirectMispredicted        35905                       # Number of mispredicted indirect branches.
system.cpu.dtb.walker.pwrStateResidencyTicks::UNDEFINED 4791246546500                       # Cumulative time (in ticks) in various power states
system.cpu.dtb.rdAccesses                      355060                       # TLB accesses on read requests
system.cpu.dtb.wrAccesses                      226383                       # TLB accesses on write requests
system.cpu.dtb.rdMisses                          8895                       # TLB misses on read requests
system.cpu.dtb.wrMisses                          1962                       # TLB misses on write requests
system.cpu.apic_clk_domain.clock                 8000                       # Clock period in ticks
system.cpu.interrupts.pwrStateResidencyTicks::UNDEFINED 4791246546500                       # Cumulative time (in ticks) in various power states
system.cpu.itb.walker.pwrStateResidencyTicks::UNDEFINED 4791246546500                       # Cumulative time (in ticks) in various power states
system.cpu.itb.rdAccesses                           0                       # TLB accesses on read requests
system.cpu.itb.wrAccesses                      278075                       # TLB accesses on write requests
system.cpu.itb.rdMisses                             0                       # TLB misses on read requests
system.cpu.itb.wrMisses                          1316                       # TLB misses on write requests
system.cpu.pwrStateResidencyTicks::ON      2475652000                       # Cumulative time (in ticks) in various power states
system.cpu.numCycles                          2435606                       # number of cpu cycles simulated
system.cpu.numWorkItemsStarted                      0                       # number of work items this cpu started
system.cpu.numWorkItemsCompleted                    0                       # number of work items this cpu completed
system.cpu.fetch.icacheStallCycles             565592                       # Number of cycles fetch is stalled on an Icache miss
system.cpu.fetch.Insts                        2002496                       # Number of instructions fetch has processed
system.cpu.fetch.Branches                      431972                       # Number of branches that fetch encountered
system.cpu.fetch.predictedBranches             132202                       # Number of branches that fetch has predicted taken
system.cpu.fetch.Cycles                       1583427                       # Number of cycles fetch has run and was not squashing or blocked
system.cpu.fetch.SquashCycles                  110292                       # Number of cycles fetch has spent squashing
system.cpu.fetch.TlbCycles                      47858                       # Number of cycles fetch has spent waiting for tlb
system.cpu.fetch.MiscStallCycles                 1694                       # Number of cycles fetch has spent waiting on interrupts, or bad addresses, or out of MSHRs
system.cpu.fetch.PendingTrapStallCycles         41955                       # Number of stall cycles due to pending traps
system.cpu.fetch.PendingQuiesceStallCycles           93                       # Number of stall cycles due to pending quiesce instructions
system.cpu.fetch.IcacheWaitRetryStallCycles           25                       # Number of stall cycles due to full MSHR
system.cpu.fetch.CacheLines                    272340                       # Number of cache lines fetched
system.cpu.fetch.IcacheSquashes                 19982                       # Number of outstanding Icache misses that were squashed
system.cpu.fetch.ItlbSquashes                     600                       # Number of outstanding ITLB misses that were squashed
system.cpu.fetch.rateDist::samples            2295790                       # Number of instructions fetched each cycle (Total)
system.cpu.fetch.rateDist::mean              1.698868                       # Number of instructions fetched each cycle (Total)
system.cpu.fetch.rateDist::stdev             3.068956                       # Number of instructions fetched each cycle (Total)
system.cpu.fetch.rateDist::underflows               0      0.00%      0.00% # Number of instructions fetched each cycle (Total)
system.cpu.fetch.rateDist::0                  1670901     72.78%     72.78% # Number of instructions fetched each cycle (Total)
system.cpu.fetch.rateDist::1                    57385      2.50%     75.28% # Number of instructions fetched each cycle (Total)
system.cpu.fetch.rateDist::2                    30250      1.32%     76.60% # Number of instructions fetched each cycle (Total)
system.cpu.fetch.rateDist::3                    36888      1.61%     78.21% # Number of instructions fetched each cycle (Total)
system.cpu.fetch.rateDist::4                    35853      1.56%     79.77% # Number of instructions fetched each cycle (Total)
system.cpu.fetch.rateDist::5                    31870      1.39%     81.15% # Number of instructions fetched each cycle (Total)
system.cpu.fetch.rateDist::6                    31047      1.35%     82.51% # Number of instructions fetched each cycle (Total)
system.cpu.fetch.rateDist::7                    30116      1.31%     83.82% # Number of instructions fetched each cycle (Total)
system.cpu.fetch.rateDist::8                   371480     16.18%    100.00% # Number of instructions fetched each cycle (Total)
system.cpu.fetch.rateDist::overflows                0      0.00%    100.00% # Number of instructions fetched each cycle (Total)
system.cpu.fetch.rateDist::min_value                0                       # Number of instructions fetched each cycle (Total)
system.cpu.fetch.rateDist::max_value                8                       # Number of instructions fetched each cycle (Total)
system.cpu.fetch.rateDist::total              2295790                       # Number of instructions fetched each cycle (Total)
system.cpu.fetch.branchRate                  0.177357                       # Number of branch fetches per cycle
system.cpu.fetch.rate                        0.822176                       # Number of inst fetches per cycle
system.cpu.decode.IdleCycles                   533246                       # Number of cycles decode is idle
system.cpu.decode.BlockedCycles               1191997                       # Number of cycles decode is blocked
system.cpu.decode.RunCycles                    450177                       # Number of cycles decode is running
system.cpu.decode.UnblockCycles                 65224                       # Number of cycles decode is unblocking
system.cpu.decode.SquashCycles                  55146                       # Number of cycles decode is squashing
system.cpu.decode.DecodedInsts                3507481                       # Number of instructions handled by decode
system.cpu.rename.SquashCycles                  55146                       # Number of cycles rename is squashing
system.cpu.rename.IdleCycles                   575657                       # Number of cycles rename is idle
system.cpu.rename.BlockCycles                  591692                       # Number of cycles rename is blocking
system.cpu.rename.serializeStallCycles         307517                       # count of cycles rename stalled for serializing inst
system.cpu.rename.RunCycles                    469254                       # Number of cycles rename is running
system.cpu.rename.UnblockCycles                296524                       # Number of cycles rename is unblocking
system.cpu.rename.RenamedInsts                3287182                       # Number of instructions processed by rename
system.cpu.rename.ROBFullEvents                  3660                       # Number of times rename has blocked due to ROB full
system.cpu.rename.IQFullEvents                  25895                       # Number of times rename has blocked due to IQ full
system.cpu.rename.LQFullEvents                  26050                       # Number of times rename has blocked due to LQ full
system.cpu.rename.SQFullEvents                 225869                       # Number of times rename has blocked due to SQ full
system.cpu.rename.RenamedOperands             3600039                       # Number of destination operands rename has renamed
system.cpu.rename.RenameLookups               8229715                       # Number of register rename lookups that rename has made
system.cpu.rename.int_rename_lookups          5069650                       # Number of integer rename lookups
system.cpu.rename.fp_rename_lookups             14042                       # Number of floating rename lookups
system.cpu.rename.CommittedMaps               1977198                       # Number of HB maps that are committed
system.cpu.rename.UndoneMaps                  1622867                       # Number of HB maps that are undone due to squashing
system.cpu.rename.serializingInsts              14111                       # count of serializing insts renamed
system.cpu.rename.tempSerializingInsts          14139                       # count of temporary serializing insts renamed
system.cpu.rename.skidInsts                    277091                       # count of insts added to the skid buffer
system.cpu.memDep0.insertedLoads               426743                       # Number of loads inserted to the mem dependence unit.
system.cpu.memDep0.insertedStores              276865                       # Number of stores inserted to the mem dependence unit.
system.cpu.memDep0.conflictingLoads             34931                       # Number of conflicting loads.
system.cpu.memDep0.conflictingStores            31199                       # Number of conflicting stores.
system.cpu.iq.iqInstsAdded                    2915246                       # Number of instructions added to the IQ (excludes non-spec)
system.cpu.iq.iqNonSpecInstsAdded               16916                       # Number of non-speculative instructions added to the IQ
system.cpu.iq.iqInstsIssued                   2533545                       # Number of instructions issued
system.cpu.iq.iqSquashedInstsIssued             20170                       # Number of squashed instructions issued
system.cpu.iq.iqSquashedInstsExamined         1162460                       # Number of squashed instructions iterated over during squash; mainly for profiling
system.cpu.iq.iqSquashedOperandsExamined      1680382                       # Number of squashed operands that are examined and possibly removed from graph
system.cpu.iq.iqSquashedNonSpecRemoved           5263                       # Number of squashed non-spec instructions that were removed
system.cpu.iq.issued_per_cycle::samples       2295790                       # Number of insts issued each cycle
system.cpu.iq.issued_per_cycle::mean         1.103561                       # Number of insts issued each cycle
system.cpu.iq.issued_per_cycle::stdev        1.989569                       # Number of insts issued each cycle
system.cpu.iq.issued_per_cycle::underflows            0      0.00%      0.00% # Number of insts issued each cycle
system.cpu.iq.issued_per_cycle::0             1549236     67.48%     67.48% # Number of insts issued each cycle
system.cpu.iq.issued_per_cycle::1              192898      8.40%     75.88% # Number of insts issued each cycle
system.cpu.iq.issued_per_cycle::2              125906      5.48%     81.37% # Number of insts issued each cycle
system.cpu.iq.issued_per_cycle::3              101716      4.43%     85.80% # Number of insts issued each cycle
system.cpu.iq.issued_per_cycle::4               92728      4.04%     89.84% # Number of insts issued each cycle
system.cpu.iq.issued_per_cycle::5               84671      3.69%     93.53% # Number of insts issued each cycle
system.cpu.iq.issued_per_cycle::6               76703      3.34%     96.87% # Number of insts issued each cycle
system.cpu.iq.issued_per_cycle::7               46254      2.01%     98.88% # Number of insts issued each cycle
system.cpu.iq.issued_per_cycle::8               25678      1.12%    100.00% # Number of insts issued each cycle
system.cpu.iq.issued_per_cycle::overflows            0      0.00%    100.00% # Number of insts issued each cycle
system.cpu.iq.issued_per_cycle::min_value            0                       # Number of insts issued each cycle
system.cpu.iq.issued_per_cycle::max_value            8                       # Number of insts issued each cycle
system.cpu.iq.issued_per_cycle::total         2295790                       # Number of insts issued each cycle
system.cpu.iq.fu_full::No_OpClass                   0      0.00%      0.00% # attempts to use FU when none available
system.cpu.iq.fu_full::IntAlu                   25309     67.59%     67.59% # attempts to use FU when none available
system.cpu.iq.fu_full::IntMult                      0      0.00%     67.59% # attempts to use FU when none available
system.cpu.iq.fu_full::IntDiv                       0      0.00%     67.59% # attempts to use FU when none available
system.cpu.iq.fu_full::FloatAdd                    67      0.18%     67.77% # attempts to use FU when none available
system.cpu.iq.fu_full::FloatCmp                     0      0.00%     67.77% # attempts to use FU when none available
system.cpu.iq.fu_full::FloatCvt                     0      0.00%     67.77% # attempts to use FU when none available
system.cpu.iq.fu_full::FloatMult                    0      0.00%     67.77% # attempts to use FU when none available
system.cpu.iq.fu_full::FloatMultAcc                 0      0.00%     67.77% # attempts to use FU when none available
system.cpu.iq.fu_full::FloatDiv                     0      0.00%     67.77% # attempts to use FU when none available
system.cpu.iq.fu_full::FloatMisc                    0      0.00%     67.77% # attempts to use FU when none available
system.cpu.iq.fu_full::FloatSqrt                    0      0.00%     67.77% # attempts to use FU when none available
system.cpu.iq.fu_full::SimdAdd                      0      0.00%     67.77% # attempts to use FU when none available
system.cpu.iq.fu_full::SimdAddAcc                   0      0.00%     67.77% # attempts to use FU when none available
system.cpu.iq.fu_full::SimdAlu                      0      0.00%     67.77% # attempts to use FU when none available
system.cpu.iq.fu_full::SimdCmp                      0      0.00%     67.77% # attempts to use FU when none available
system.cpu.iq.fu_full::SimdCvt                      0      0.00%     67.77% # attempts to use FU when none available
system.cpu.iq.fu_full::SimdMisc                     0      0.00%     67.77% # attempts to use FU when none available
system.cpu.iq.fu_full::SimdMult                     0      0.00%     67.77% # attempts to use FU when none available
system.cpu.iq.fu_full::SimdMultAcc                  0      0.00%     67.77% # attempts to use FU when none available
system.cpu.iq.fu_full::SimdShift                    0      0.00%     67.77% # attempts to use FU when none available
system.cpu.iq.fu_full::SimdShiftAcc                 0      0.00%     67.77% # attempts to use FU when none available
system.cpu.iq.fu_full::SimdSqrt                     0      0.00%     67.77% # attempts to use FU when none available
system.cpu.iq.fu_full::SimdFloatAdd                 0      0.00%     67.77% # attempts to use FU when none available
system.cpu.iq.fu_full::SimdFloatAlu                 0      0.00%     67.77% # attempts to use FU when none available
system.cpu.iq.fu_full::SimdFloatCmp                 0      0.00%     67.77% # attempts to use FU when none available
system.cpu.iq.fu_full::SimdFloatCvt                 0      0.00%     67.77% # attempts to use FU when none available
system.cpu.iq.fu_full::SimdFloatDiv                 0      0.00%     67.77% # attempts to use FU when none available
system.cpu.iq.fu_full::SimdFloatMisc                0      0.00%     67.77% # attempts to use FU when none available
system.cpu.iq.fu_full::SimdFloatMult                0      0.00%     67.77% # attempts to use FU when none available
system.cpu.iq.fu_full::SimdFloatMultAcc             0      0.00%     67.77% # attempts to use FU when none available
system.cpu.iq.fu_full::SimdFloatSqrt                0      0.00%     67.77% # attempts to use FU when none available
system.cpu.iq.fu_full::MemRead                   8726     23.30%     91.07% # attempts to use FU when none available
system.cpu.iq.fu_full::MemWrite                  3294      8.80%     99.87% # attempts to use FU when none available
system.cpu.iq.fu_full::FloatMemRead                25      0.07%     99.93% # attempts to use FU when none available
system.cpu.iq.fu_full::FloatMemWrite               25      0.07%    100.00% # attempts to use FU when none available
system.cpu.iq.fu_full::IprAccess                    0      0.00%    100.00% # attempts to use FU when none available
system.cpu.iq.fu_full::InstPrefetch                 0      0.00%    100.00% # attempts to use FU when none available
system.cpu.iq.FU_type_0::No_OpClass             34293      1.35%      1.35% # Type of FU issued
system.cpu.iq.FU_type_0::IntAlu               1880057     74.21%     75.56% # Type of FU issued
system.cpu.iq.FU_type_0::IntMult                 1471      0.06%     75.62% # Type of FU issued
system.cpu.iq.FU_type_0::IntDiv                  1780      0.07%     75.69% # Type of FU issued
system.cpu.iq.FU_type_0::FloatAdd                3283      0.13%     75.82% # Type of FU issued
system.cpu.iq.FU_type_0::FloatCmp                   0      0.00%     75.82% # Type of FU issued
system.cpu.iq.FU_type_0::FloatCvt                   0      0.00%     75.82% # Type of FU issued
system.cpu.iq.FU_type_0::FloatMult                  0      0.00%     75.82% # Type of FU issued
system.cpu.iq.FU_type_0::FloatMultAcc               0      0.00%     75.82% # Type of FU issued
system.cpu.iq.FU_type_0::FloatDiv                   0      0.00%     75.82% # Type of FU issued
system.cpu.iq.FU_type_0::FloatMisc                  0      0.00%     75.82% # Type of FU issued
system.cpu.iq.FU_type_0::FloatSqrt                  0      0.00%     75.82% # Type of FU issued
system.cpu.iq.FU_type_0::SimdAdd                    0      0.00%     75.82% # Type of FU issued
system.cpu.iq.FU_type_0::SimdAddAcc                 0      0.00%     75.82% # Type of FU issued
system.cpu.iq.FU_type_0::SimdAlu                    0      0.00%     75.82% # Type of FU issued
system.cpu.iq.FU_type_0::SimdCmp                    0      0.00%     75.82% # Type of FU issued
system.cpu.iq.FU_type_0::SimdCvt                    0      0.00%     75.82% # Type of FU issued
system.cpu.iq.FU_type_0::SimdMisc                   0      0.00%     75.82% # Type of FU issued
system.cpu.iq.FU_type_0::SimdMult                   0      0.00%     75.82% # Type of FU issued
system.cpu.iq.FU_type_0::SimdMultAcc                0      0.00%     75.82% # Type of FU issued
system.cpu.iq.FU_type_0::SimdShift                  0      0.00%     75.82% # Type of FU issued
system.cpu.iq.FU_type_0::SimdShiftAcc               0      0.00%     75.82% # Type of FU issued
system.cpu.iq.FU_type_0::SimdSqrt                   0      0.00%     75.82% # Type of FU issued
system.cpu.iq.FU_type_0::SimdFloatAdd               0      0.00%     75.82% # Type of FU issued
system.cpu.iq.FU_type_0::SimdFloatAlu               0      0.00%     75.82% # Type of FU issued
system.cpu.iq.FU_type_0::SimdFloatCmp               0      0.00%     75.82% # Type of FU issued
system.cpu.iq.FU_type_0::SimdFloatCvt               0      0.00%     75.82% # Type of FU issued
system.cpu.iq.FU_type_0::SimdFloatDiv               0      0.00%     75.82% # Type of FU issued
system.cpu.iq.FU_type_0::SimdFloatMisc              0      0.00%     75.82% # Type of FU issued
system.cpu.iq.FU_type_0::SimdFloatMult              0      0.00%     75.82% # Type of FU issued
system.cpu.iq.FU_type_0::SimdFloatMultAcc            0      0.00%     75.82% # Type of FU issued
system.cpu.iq.FU_type_0::SimdFloatSqrt              0      0.00%     75.82% # Type of FU issued
system.cpu.iq.FU_type_0::MemRead               373435     14.74%     90.56% # Type of FU issued
system.cpu.iq.FU_type_0::MemWrite              237532      9.38%     99.93% # Type of FU issued
system.cpu.iq.FU_type_0::FloatMemRead            1586      0.06%    100.00% # Type of FU issued
system.cpu.iq.FU_type_0::FloatMemWrite            108      0.00%    100.00% # Type of FU issued
system.cpu.iq.FU_type_0::IprAccess                  0      0.00%    100.00% # Type of FU issued
system.cpu.iq.FU_type_0::InstPrefetch               0      0.00%    100.00% # Type of FU issued
system.cpu.iq.FU_type_0::total                2533545                       # Type of FU issued
system.cpu.iq.rate                           1.040211                       # Inst issue rate
system.cpu.iq.fu_busy_cnt                       37446                       # FU busy when requested
system.cpu.iq.fu_busy_rate                   0.014780                       # FU busy rate (busy events/executed inst)
system.cpu.iq.int_inst_queue_reads            7409815                       # Number of integer instruction queue reads
system.cpu.iq.int_inst_queue_writes           4082767                       # Number of integer instruction queue writes
system.cpu.iq.int_inst_queue_wakeup_accesses      2370775                       # Number of integer instruction queue wakeup accesses
system.cpu.iq.fp_inst_queue_reads               10681                       # Number of floating instruction queue reads
system.cpu.iq.fp_inst_queue_writes              12992                       # Number of floating instruction queue writes
system.cpu.iq.fp_inst_queue_wakeup_accesses         4402                       # Number of floating instruction queue wakeup accesses
system.cpu.iq.int_alu_accesses                2531432                       # Number of integer alu accesses
system.cpu.iq.fp_alu_accesses                    5266                       # Number of floating point alu accesses
system.cpu.iew.lsq.thread0.forwLoads            31866                       # Number of loads that had data forwarded from stores
system.cpu.iew.lsq.thread0.invAddrLoads             0                       # Number of loads ignored due to an invalid address
system.cpu.iew.lsq.thread0.squashedLoads       168021                       # Number of loads squashed
system.cpu.iew.lsq.thread0.ignoredResponses          668                       # Number of memory responses ignored because the instruction is squashed
system.cpu.iew.lsq.thread0.memOrderViolation         1169                       # Number of memory ordering violations
system.cpu.iew.lsq.thread0.squashedStores        86028                       # Number of stores squashed
system.cpu.iew.lsq.thread0.invAddrSwpfs             0                       # Number of software prefetches ignored due to an invalid address
system.cpu.iew.lsq.thread0.blockedLoads             0                       # Number of blocked loads due to partial load-store forwarding
system.cpu.iew.lsq.thread0.rescheduledLoads         1457                       # Number of loads that were rescheduled
system.cpu.iew.lsq.thread0.cacheBlocked          2114                       # Number of times an access to memory failed due to the cache being blocked
system.cpu.iew.iewIdleCycles                        0                       # Number of cycles IEW is idle
system.cpu.iew.iewSquashCycles                  55146                       # Number of cycles IEW is squashing
system.cpu.iew.iewBlockCycles                  340941                       # Number of cycles IEW is blocking
system.cpu.iew.iewUnblockCycles                135350                       # Number of cycles IEW is unblocking
system.cpu.iew.iewDispatchedInsts             2932198                       # Number of instructions dispatched to IQ
system.cpu.iew.iewDispSquashedInsts              5005                       # Number of squashed instructions skipped by dispatch
system.cpu.iew.iewDispLoadInsts                426743                       # Number of dispatched load instructions
system.cpu.iew.iewDispStoreInsts               276865                       # Number of dispatched store instructions
system.cpu.iew.iewDispNonSpecInsts              15240                       # Number of dispatched non-speculative instructions
system.cpu.iew.iewIQFullEvents                   1180                       # Number of times the IQ has become full, causing a stall
system.cpu.iew.iewLSQFullEvents                133581                       # Number of times the LSQ has become full, causing a stall
system.cpu.iew.memOrderViolationEvents           1169                       # Number of memory order violations
system.cpu.iew.predictedTakenIncorrect          14354                       # Number of branches that were predicted taken incorrectly
system.cpu.iew.predictedNotTakenIncorrect        54183                       # Number of branches that were predicted not taken incorrectly
system.cpu.iew.branchMispredicts                68537                       # Number of branch mispredicts detected at execute
system.cpu.iew.iewExecutedInsts               2419205                       # Number of executed instructions
system.cpu.iew.iewExecLoadInsts                346114                       # Number of load instructions executed
system.cpu.iew.iewExecSquashedInsts            103599                       # Number of squashed instructions skipped in execute
system.cpu.iew.exec_swp                             0                       # number of swp insts executed
system.cpu.iew.exec_nop                            36                       # number of nop insts executed
system.cpu.iew.exec_refs                       570529                       # number of memory reference insts executed
system.cpu.iew.exec_branches                   242424                       # Number of branches executed
system.cpu.iew.exec_stores                     224415                       # Number of stores executed
system.cpu.iew.exec_rate                     0.993266                       # Inst execution rate
system.cpu.iew.wb_sent                        2391579                       # cumulative count of insts sent to commit
system.cpu.iew.wb_count                       2375177                       # cumulative count of insts written-back
system.cpu.iew.wb_producers                   1561138                       # num instructions producing a value
system.cpu.iew.wb_consumers                   2508997                       # num instructions consuming a value
system.cpu.iew.wb_rate                       0.975189                       # insts written-back per cycle
system.cpu.iew.wb_fanout                     0.622216                       # average fanout of values written-back
system.cpu.commit.commitSquashedInsts         1160912                       # The number of squashed insts skipped by commit
system.cpu.commit.commitNonSpecStalls           11653                       # The number of times commit has been forced to stall to communicate backwards
system.cpu.commit.branchMispredicts             52655                       # The number of times a branch was mispredicted
system.cpu.commit.committed_per_cycle::samples      2103088                       # Number of insts commited each cycle
system.cpu.commit.committed_per_cycle::mean     0.841486                       # Number of insts commited each cycle
system.cpu.commit.committed_per_cycle::stdev     1.940832                       # Number of insts commited each cycle
system.cpu.commit.committed_per_cycle::underflows            0      0.00%      0.00% # Number of insts commited each cycle
system.cpu.commit.committed_per_cycle::0      1576742     74.97%     74.97% # Number of insts commited each cycle
system.cpu.commit.committed_per_cycle::1       186871      8.89%     83.86% # Number of insts commited each cycle
system.cpu.commit.committed_per_cycle::2        74996      3.57%     87.42% # Number of insts commited each cycle
system.cpu.commit.committed_per_cycle::3        76373      3.63%     91.06% # Number of insts commited each cycle
system.cpu.commit.committed_per_cycle::4        43002      2.04%     93.10% # Number of insts commited each cycle
system.cpu.commit.committed_per_cycle::5        27238      1.30%     94.40% # Number of insts commited each cycle
system.cpu.commit.committed_per_cycle::6        17691      0.84%     95.24% # Number of insts commited each cycle
system.cpu.commit.committed_per_cycle::7        12007      0.57%     95.81% # Number of insts commited each cycle
system.cpu.commit.committed_per_cycle::8        88168      4.19%    100.00% # Number of insts commited each cycle
system.cpu.commit.committed_per_cycle::overflows            0      0.00%    100.00% # Number of insts commited each cycle
system.cpu.commit.committed_per_cycle::min_value            0                       # Number of insts commited each cycle
system.cpu.commit.committed_per_cycle::max_value            8                       # Number of insts commited each cycle
system.cpu.commit.committed_per_cycle::total      2103088                       # Number of insts commited each cycle
system.cpu.commit.committedInsts               945571                       # Number of instructions committed
system.cpu.commit.committedOps                1769719                       # Number of ops (including micro ops) committed
system.cpu.commit.swp_count                         0                       # Number of s/w prefetches committed
system.cpu.commit.refs                         449567                       # Number of memory references committed
system.cpu.commit.loads                        258729                       # Number of loads committed
system.cpu.commit.membars                        1114                       # Number of memory barriers committed
system.cpu.commit.branches                     189765                       # Number of branches committed
system.cpu.commit.vec_insts                         0                       # Number of committed Vector instructions.
system.cpu.commit.fp_insts                       2404                       # Number of committed floating point instructions.
system.cpu.commit.int_insts                   1751994                       # Number of committed integer instructions.
system.cpu.commit.function_calls                19913                       # Number of function calls committed.
system.cpu.commit.op_class_0::No_OpClass        14757      0.83%      0.83% # Class of committed instruction
system.cpu.commit.op_class_0::IntAlu          1300647     73.49%     74.33% # Class of committed instruction
system.cpu.commit.op_class_0::IntMult            1278      0.07%     74.40% # Class of committed instruction
system.cpu.commit.op_class_0::IntDiv             1648      0.09%     74.49% # Class of committed instruction
system.cpu.commit.op_class_0::FloatAdd           1822      0.10%     74.60% # Class of committed instruction
system.cpu.commit.op_class_0::FloatCmp              0      0.00%     74.60% # Class of committed instruction
system.cpu.commit.op_class_0::FloatCvt              0      0.00%     74.60% # Class of committed instruction
system.cpu.commit.op_class_0::FloatMult             0      0.00%     74.60% # Class of committed instruction
system.cpu.commit.op_class_0::FloatMultAcc            0      0.00%     74.60% # Class of committed instruction
system.cpu.commit.op_class_0::FloatDiv              0      0.00%     74.60% # Class of committed instruction
system.cpu.commit.op_class_0::FloatMisc             0      0.00%     74.60% # Class of committed instruction
system.cpu.commit.op_class_0::FloatSqrt             0      0.00%     74.60% # Class of committed instruction
system.cpu.commit.op_class_0::SimdAdd               0      0.00%     74.60% # Class of committed instruction
system.cpu.commit.op_class_0::SimdAddAcc            0      0.00%     74.60% # Class of committed instruction
system.cpu.commit.op_class_0::SimdAlu               0      0.00%     74.60% # Class of committed instruction
system.cpu.commit.op_class_0::SimdCmp               0      0.00%     74.60% # Class of committed instruction
system.cpu.commit.op_class_0::SimdCvt               0      0.00%     74.60% # Class of committed instruction
system.cpu.commit.op_class_0::SimdMisc              0      0.00%     74.60% # Class of committed instruction
system.cpu.commit.op_class_0::SimdMult              0      0.00%     74.60% # Class of committed instruction
system.cpu.commit.op_class_0::SimdMultAcc            0      0.00%     74.60% # Class of committed instruction
system.cpu.commit.op_class_0::SimdShift             0      0.00%     74.60% # Class of committed instruction
system.cpu.commit.op_class_0::SimdShiftAcc            0      0.00%     74.60% # Class of committed instruction
system.cpu.commit.op_class_0::SimdSqrt              0      0.00%     74.60% # Class of committed instruction
system.cpu.commit.op_class_0::SimdFloatAdd            0      0.00%     74.60% # Class of committed instruction
system.cpu.commit.op_class_0::SimdFloatAlu            0      0.00%     74.60% # Class of committed instruction
system.cpu.commit.op_class_0::SimdFloatCmp            0      0.00%     74.60% # Class of committed instruction
system.cpu.commit.op_class_0::SimdFloatCvt            0      0.00%     74.60% # Class of committed instruction
system.cpu.commit.op_class_0::SimdFloatDiv            0      0.00%     74.60% # Class of committed instruction
system.cpu.commit.op_class_0::SimdFloatMisc            0      0.00%     74.60% # Class of committed instruction
system.cpu.commit.op_class_0::SimdFloatMult            0      0.00%     74.60% # Class of committed instruction
system.cpu.commit.op_class_0::SimdFloatMultAcc            0      0.00%     74.60% # Class of committed instruction
system.cpu.commit.op_class_0::SimdFloatSqrt            0      0.00%     74.60% # Class of committed instruction
system.cpu.commit.op_class_0::MemRead          258275     14.59%     89.19% # Class of committed instruction
system.cpu.commit.op_class_0::MemWrite         190838     10.78%     99.97% # Class of committed instruction
system.cpu.commit.op_class_0::FloatMemRead          454      0.03%    100.00% # Class of committed instruction
system.cpu.commit.op_class_0::FloatMemWrite            0      0.00%    100.00% # Class of committed instruction
system.cpu.commit.op_class_0::IprAccess             0      0.00%    100.00% # Class of committed instruction
system.cpu.commit.op_class_0::InstPrefetch            0      0.00%    100.00% # Class of committed instruction
system.cpu.commit.op_class_0::total           1769719                       # Class of committed instruction
system.cpu.commit.bw_lim_events                 88168                       # number cycles where commit BW limit reached
system.cpu.rob.rob_reads                      4940000                       # The number of ROB reads
system.cpu.rob.rob_writes                     6057725                       # The number of ROB writes
system.cpu.timesIdled                            7193                       # Number of times that the entire CPU went into an idle state and unscheduled itself
system.cpu.idleCycles                          139816                       # Total number of cycles that the CPU has spent unscheduled due to idling
system.cpu.committedInsts                      945571                       # Number of Instructions Simulated
system.cpu.committedOps                       1769719                       # Number of Ops (including micro ops) Simulated
system.cpu.cpi                               2.575804                       # CPI: Cycles Per Instruction
system.cpu.cpi_total                         2.575804                       # CPI: Total CPI of All Threads
system.cpu.ipc                               0.388228                       # IPC: Instructions Per Cycle
system.cpu.ipc_total                         0.388228                       # IPC: Total IPC of All Threads
system.cpu.int_regfile_reads                  3578750                       # number of integer regfile reads
system.cpu.int_regfile_writes                 1888915                       # number of integer regfile writes
system.cpu.fp_regfile_reads                      7048                       # number of floating regfile reads
system.cpu.fp_regfile_writes                     3738                       # number of floating regfile writes
system.cpu.cc_regfile_reads                   1088973                       # number of cc regfile reads
system.cpu.cc_regfile_writes                   701419                       # number of cc regfile writes
system.cpu.misc_regfile_reads                 1100472                       # number of misc regfile reads
system.cpu.misc_regfile_writes                  13087                       # number of misc regfile writes
system.cpu.dcache.tags.pwrStateResidencyTicks::UNDEFINED 4791246546500                       # Cumulative time (in ticks) in various power states
system.cpu.dcache.tags.replacements             21629                       # number of replacements
system.cpu.dcache.tags.tagsinuse                 1024                       # Cycle average of tags in use
system.cpu.dcache.tags.total_refs              484490                       # Total number of references to valid blocks.
system.cpu.dcache.tags.sampled_refs             21629                       # Sample count of references to valid blocks.
system.cpu.dcache.tags.avg_refs             22.400018                       # Average number of references to valid blocks.
system.cpu.dcache.tags.warmup_cycle                 0                       # Cycle when the warmup percentage was hit.
system.cpu.dcache.tags.occ_blocks::cpu.data         1024                       # Average occupied blocks per requestor
system.cpu.dcache.tags.occ_percent::cpu.data            1                       # Average percentage of cache occupancy
system.cpu.dcache.tags.occ_percent::total            1                       # Average percentage of cache occupancy
system.cpu.dcache.tags.occ_task_id_blocks::1024         1024                       # Occupied blocks per task id
system.cpu.dcache.tags.age_task_id_blocks_1024::0           54                       # Occupied blocks per task id
system.cpu.dcache.tags.age_task_id_blocks_1024::1          786                       # Occupied blocks per task id
system.cpu.dcache.tags.age_task_id_blocks_1024::2          184                       # Occupied blocks per task id
system.cpu.dcache.tags.occ_task_id_percent::1024            1                       # Percentage of cache occupancy per task id
system.cpu.dcache.tags.tag_accesses           1023881                       # Number of tag accesses
system.cpu.dcache.tags.data_accesses          1023881                       # Number of data accesses
system.cpu.dcache.pwrStateResidencyTicks::UNDEFINED 4791246546500                       # Cumulative time (in ticks) in various power states
system.cpu.dcache.ReadReq_hits::cpu.data       283503                       # number of ReadReq hits
system.cpu.dcache.ReadReq_hits::total          283503                       # number of ReadReq hits
system.cpu.dcache.WriteReq_hits::cpu.data       181565                       # number of WriteReq hits
system.cpu.dcache.WriteReq_hits::total         181565                       # number of WriteReq hits
system.cpu.dcache.SoftPFReq_hits::cpu.data          553                       # number of SoftPFReq hits
system.cpu.dcache.SoftPFReq_hits::total           553                       # number of SoftPFReq hits
system.cpu.dcache.demand_hits::cpu.data        465068                       # number of demand (read+write) hits
system.cpu.dcache.demand_hits::total           465068                       # number of demand (read+write) hits
system.cpu.dcache.overall_hits::cpu.data       465621                       # number of overall hits
system.cpu.dcache.overall_hits::total          465621                       # number of overall hits
system.cpu.dcache.ReadReq_misses::cpu.data        23356                       # number of ReadReq misses
system.cpu.dcache.ReadReq_misses::total         23356                       # number of ReadReq misses
system.cpu.dcache.WriteReq_misses::cpu.data         9218                       # number of WriteReq misses
system.cpu.dcache.WriteReq_misses::total         9218                       # number of WriteReq misses
system.cpu.dcache.SoftPFReq_misses::cpu.data         2931                       # number of SoftPFReq misses
system.cpu.dcache.SoftPFReq_misses::total         2931                       # number of SoftPFReq misses
system.cpu.dcache.demand_misses::cpu.data        32574                       # number of demand (read+write) misses
system.cpu.dcache.demand_misses::total          32574                       # number of demand (read+write) misses
system.cpu.dcache.overall_misses::cpu.data        35505                       # number of overall misses
system.cpu.dcache.overall_misses::total         35505                       # number of overall misses
system.cpu.dcache.ReadReq_miss_latency::cpu.data    292301000                       # number of ReadReq miss cycles
system.cpu.dcache.ReadReq_miss_latency::total    292301000                       # number of ReadReq miss cycles
system.cpu.dcache.WriteReq_miss_latency::cpu.data    157681985                       # number of WriteReq miss cycles
system.cpu.dcache.WriteReq_miss_latency::total    157681985                       # number of WriteReq miss cycles
system.cpu.dcache.demand_miss_latency::cpu.data    449982985                       # number of demand (read+write) miss cycles
[...]
system.l2cache.demand_mshr_misses::total         1420                       # number of demand (read+write) MSHR misses
system.l2cache.overall_mshr_misses::cpu.inst          480                       # number of overall MSHR misses
system.l2cache.overall_mshr_misses::cpu.data          940                       # number of overall MSHR misses
system.l2cache.overall_mshr_misses::total         1420                       # number of overall MSHR misses
system.l2cache.ReadReq_mshr_uncacheable::cpu.data          347                       # number of ReadReq MSHR uncacheable
system.l2cache.ReadReq_mshr_uncacheable::total          347                       # number of ReadReq MSHR uncacheable
system.l2cache.WriteReq_mshr_uncacheable::cpu.data          129                       # number of WriteReq MSHR uncacheable
system.l2cache.WriteReq_mshr_uncacheable::total          129                       # number of WriteReq MSHR uncacheable
system.l2cache.overall_mshr_uncacheable_misses::cpu.data          476                       # number of overall MSHR uncacheable misses
system.l2cache.overall_mshr_uncacheable_misses::total          476                       # number of overall MSHR uncacheable misses
system.l2cache.UpgradeReq_mshr_miss_latency::cpu.data     12597498                       # number of UpgradeReq MSHR miss cycles
system.l2cache.UpgradeReq_mshr_miss_latency::total     12597498                       # number of UpgradeReq MSHR miss cycles
system.l2cache.ReadExReq_mshr_miss_latency::cpu.data     40172000                       # number of ReadExReq MSHR miss cycles
system.l2cache.ReadExReq_mshr_miss_latency::total     40172000                       # number of ReadExReq MSHR miss cycles
system.l2cache.ReadSharedReq_mshr_miss_latency::cpu.inst     41907000                       # number of ReadSharedReq MSHR miss cycles
system.l2cache.ReadSharedReq_mshr_miss_latency::cpu.data     23983000                       # number of ReadSharedReq MSHR miss cycles
system.l2cache.ReadSharedReq_mshr_miss_latency::total     65890000                       # number of ReadSharedReq MSHR miss cycles
system.l2cache.demand_mshr_miss_latency::cpu.inst     41907000                       # number of demand (read+write) MSHR miss cycles
system.l2cache.demand_mshr_miss_latency::cpu.data     64155000                       # number of demand (read+write) MSHR miss cycles
system.l2cache.demand_mshr_miss_latency::total    106062000                       # number of demand (read+write) MSHR miss cycles
system.l2cache.overall_mshr_miss_latency::cpu.inst     41907000                       # number of overall MSHR miss cycles
system.l2cache.overall_mshr_miss_latency::cpu.data     64155000                       # number of overall MSHR miss cycles
system.l2cache.overall_mshr_miss_latency::total    106062000                       # number of overall MSHR miss cycles
system.l2cache.ReadReq_mshr_uncacheable_latency::cpu.data     75819500                       # number of ReadReq MSHR uncacheable cycles
system.l2cache.ReadReq_mshr_uncacheable_latency::total     75819500                       # number of ReadReq MSHR uncacheable cycles
system.l2cache.overall_mshr_uncacheable_latency::cpu.data     75819500                       # number of overall MSHR uncacheable cycles
system.l2cache.overall_mshr_uncacheable_latency::total     75819500                       # number of overall MSHR uncacheable cycles
system.l2cache.UpgradeReq_mshr_miss_rate::cpu.data     0.947541                       # mshr miss rate for UpgradeReq accesses
system.l2cache.UpgradeReq_mshr_miss_rate::total     0.947541                       # mshr miss rate for UpgradeReq accesses
system.l2cache.ReadExReq_mshr_miss_rate::cpu.data     0.050606                       # mshr miss rate for ReadExReq accesses
system.l2cache.ReadExReq_mshr_miss_rate::total     0.050606                       # mshr miss rate for ReadExReq accesses
system.l2cache.ReadSharedReq_mshr_miss_rate::cpu.inst     0.015027                       # mshr miss rate for ReadSharedReq accesses
system.l2cache.ReadSharedReq_mshr_miss_rate::cpu.data     0.011868                       # mshr miss rate for ReadSharedReq accesses
system.l2cache.ReadSharedReq_mshr_miss_rate::total     0.013793                       # mshr miss rate for ReadSharedReq accesses
system.l2cache.demand_mshr_miss_rate::cpu.inst     0.015027                       # mshr miss rate for demand accesses
system.l2cache.demand_mshr_miss_rate::cpu.data     0.027446                       # mshr miss rate for demand accesses
system.l2cache.demand_mshr_miss_rate::total     0.021453                       # mshr miss rate for demand accesses
system.l2cache.overall_mshr_miss_rate::cpu.inst     0.015027                       # mshr miss rate for overall accesses
system.l2cache.overall_mshr_miss_rate::cpu.data     0.027446                       # mshr miss rate for overall accesses
system.l2cache.overall_mshr_miss_rate::total     0.021453                       # mshr miss rate for overall accesses
system.l2cache.UpgradeReq_avg_mshr_miss_latency::cpu.data 14529.986159                       # average UpgradeReq mshr miss latency
system.l2cache.UpgradeReq_avg_mshr_miss_latency::total 14529.986159                       # average UpgradeReq mshr miss latency
system.l2cache.ReadExReq_avg_mshr_miss_latency::cpu.data 57635.581062                       # average ReadExReq mshr miss latency
system.l2cache.ReadExReq_avg_mshr_miss_latency::total 57635.581062                       # average ReadExReq mshr miss latency
system.l2cache.ReadSharedReq_avg_mshr_miss_latency::cpu.inst 87306.250000                       # average ReadSharedReq mshr miss latency
system.l2cache.ReadSharedReq_avg_mshr_miss_latency::cpu.data 98695.473251                       # average ReadSharedReq mshr miss latency
system.l2cache.ReadSharedReq_avg_mshr_miss_latency::total 91134.163209                       # average ReadSharedReq mshr miss latency
system.l2cache.demand_avg_mshr_miss_latency::cpu.inst 87306.250000                       # average overall mshr miss latency
system.l2cache.demand_avg_mshr_miss_latency::cpu.data        68250                       # average overall mshr miss latency
system.l2cache.demand_avg_mshr_miss_latency::total 74691.549296                       # average overall mshr miss latency
system.l2cache.overall_avg_mshr_miss_latency::cpu.inst 87306.250000                       # average overall mshr miss latency
system.l2cache.overall_avg_mshr_miss_latency::cpu.data        68250                       # average overall mshr miss latency
system.l2cache.overall_avg_mshr_miss_latency::total 74691.549296                       # average overall mshr miss latency
system.l2cache.ReadReq_avg_mshr_uncacheable_latency::cpu.data       218500                       # average ReadReq mshr uncacheable latency
system.l2cache.ReadReq_avg_mshr_uncacheable_latency::total       218500                       # average ReadReq mshr uncacheable latency
system.l2cache.overall_avg_mshr_uncacheable_latency::cpu.data 159284.663866                       # average overall mshr uncacheable latency
system.l2cache.overall_avg_mshr_uncacheable_latency::total 159284.663866                       # average overall mshr uncacheable latency
system.membus.snoop_filter.tot_requests         35936                       # Total number of requests made to the snoop filter.
system.membus.snoop_filter.hit_single_requests        34646                       # Number of requests hitting in the snoop filter with a single holder of the requested data.
system.membus.snoop_filter.hit_multi_requests            0                       # Number of requests hitting in the snoop filter with multiple (>1) holders of the requested data.
system.membus.snoop_filter.tot_snoops               0                       # Total number of snoops made to the snoop filter.
system.membus.snoop_filter.hit_single_snoops            0                       # Number of snoops hitting in the snoop filter with a single holder of the requested data.
system.membus.snoop_filter.hit_multi_snoops            0                       # Number of snoops hitting in the snoop filter with multiple (>1) holders of the requested data.
system.membus.pwrStateResidencyTicks::UNDEFINED 4791870884500                       # Cumulative time (in ticks) in various power states
system.membus.trans_dist::ReadReq               36009                       # Transaction distribution
system.membus.trans_dist::ReadResp              36732                       # Transaction distribution
system.membus.trans_dist::WriteReq                129                       # Transaction distribution
system.membus.trans_dist::WriteResp               129                       # Transaction distribution
system.membus.trans_dist::WritebackDirty          581                       # Transaction distribution
system.membus.trans_dist::CleanEvict              582                       # Transaction distribution
system.membus.trans_dist::UpgradeReq              996                       # Transaction distribution
system.membus.trans_dist::ReadExReq               568                       # Transaction distribution
system.membus.trans_dist::ReadExResp              568                       # Transaction distribution
system.membus.trans_dist::ReadSharedReq           723                       # Transaction distribution
system.membus.trans_dist::MessageReq              117                       # Transaction distribution
system.membus.trans_dist::MessageResp             117                       # Transaction distribution
system.membus.pkt_count_system.apicbridge.master::system.cpu.interrupts.int_slave          234                       # Packet count per connected master and slave (bytes)
system.membus.pkt_count_system.apicbridge.master::total          234                       # Packet count per connected master and slave (bytes)
system.membus.pkt_count_system.l2cache.mem_side::system.bridge.slave          936                       # Packet count per connected master and slave (bytes)
system.membus.pkt_count_system.l2cache.mem_side::system.mem_cntrl.port         4741                       # Packet count per connected master and slave (bytes)
system.membus.pkt_count_system.l2cache.mem_side::system.cpu.interrupts.pio           16                       # Packet count per connected master and slave (bytes)
system.membus.pkt_count_system.l2cache.mem_side::total         5693                       # Packet count per connected master and slave (bytes)
system.membus.pkt_count_system.cpu.itb.walker.port::system.mem_cntrl.port         7577                       # Packet count per connected master and slave (bytes)
system.membus.pkt_count_system.cpu.itb.walker.port::total         7577                       # Packet count per connected master and slave (bytes)
system.membus.pkt_count_system.cpu.dtb.walker.port::system.mem_cntrl.port        31313                       # Packet count per connected master and slave (bytes)
system.membus.pkt_count_system.cpu.dtb.walker.port::total        31313                       # Packet count per connected master and slave (bytes)
system.membus.pkt_count::total                  44817                       # Packet count per connected master and slave (bytes)
system.membus.pkt_size_system.apicbridge.master::system.cpu.interrupts.int_slave          468                       # Cumulative packet size per connected master and slave (bytes)
system.membus.pkt_size_system.apicbridge.master::total          468                       # Cumulative packet size per connected master and slave (bytes)
system.membus.pkt_size_system.l2cache.mem_side::system.bridge.slave          468                       # Cumulative packet size per connected master and slave (bytes)
system.membus.pkt_size_system.l2cache.mem_side::system.mem_cntrl.port       119808                       # Cumulative packet size per connected master and slave (bytes)
system.membus.pkt_size_system.l2cache.mem_side::system.cpu.interrupts.pio           32                       # Cumulative packet size per connected master and slave (bytes)
system.membus.pkt_size_system.l2cache.mem_side::total       120308                       # Cumulative packet size per connected master and slave (bytes)
system.membus.pkt_size_system.cpu.itb.walker.port::system.mem_cntrl.port          536                       # Cumulative packet size per connected master and slave (bytes)
system.membus.pkt_size_system.cpu.itb.walker.port::total          536                       # Cumulative packet size per connected master and slave (bytes)
system.membus.pkt_size_system.cpu.dtb.walker.port::system.mem_cntrl.port        25288                       # Cumulative packet size per connected master and slave (bytes)
system.membus.pkt_size_system.cpu.dtb.walker.port::total        25288                       # Cumulative packet size per connected master and slave (bytes)
system.membus.pkt_size::total                  146600                       # Cumulative packet size per connected master and slave (bytes)
system.membus.snoops                            32434                       # Total snoops (count)
system.membus.snoopTraffic                     259472                       # Total snoop traffic (bytes)
system.membus.snoop_fanout::samples             38542                       # Request fanout histogram
system.membus.snoop_fanout::mean             0.842873                       # Request fanout histogram
system.membus.snoop_fanout::stdev            0.363925                       # Request fanout histogram
system.membus.snoop_fanout::underflows              0      0.00%      0.00% # Request fanout histogram
system.membus.snoop_fanout::0                    6056     15.71%     15.71% # Request fanout histogram
system.membus.snoop_fanout::1                   32486     84.29%    100.00% # Request fanout histogram
system.membus.snoop_fanout::2                       0      0.00%    100.00% # Request fanout histogram
system.membus.snoop_fanout::overflows               0      0.00%    100.00% # Request fanout histogram
system.membus.snoop_fanout::min_value               0                       # Request fanout histogram
system.membus.snoop_fanout::max_value               1                       # Request fanout histogram
system.membus.snoop_fanout::total               38542                       # Request fanout histogram
system.membus.reqLayer0.occupancy              294500                       # Layer occupancy (ticks)
system.membus.reqLayer0.utilization               0.0                       # Layer utilization (%)
system.membus.reqLayer1.occupancy            20718998                       # Layer occupancy (ticks)
system.membus.reqLayer1.utilization               1.1                       # Layer utilization (%)
system.membus.reqLayer2.occupancy                8000                       # Layer occupancy (ticks)
system.membus.reqLayer2.utilization               0.0                       # Layer utilization (%)
system.membus.reqLayer3.occupancy              117000                       # Layer occupancy (ticks)
system.membus.reqLayer3.utilization               0.0                       # Layer utilization (%)
system.membus.respLayer1.occupancy              58500                       # Layer occupancy (ticks)
system.membus.respLayer1.utilization              0.0                       # Layer utilization (%)
system.membus.respLayer3.occupancy            3872250                       # Layer occupancy (ticks)
system.membus.respLayer3.utilization              0.2                       # Layer utilization (%)
system.membus.respLayer4.occupancy            7626784                       # Layer occupancy (ticks)
system.membus.respLayer4.utilization              0.4                       # Layer utilization (%)
system.membus.respLayer5.occupancy           28859391                       # Layer occupancy (ticks)
system.membus.respLayer5.utilization              1.6                       # Layer utilization (%)
system.membus.badaddr_responder.pwrStateResidencyTicks::UNDEFINED 4791870884500                       # Cumulative time (in ticks) in various power states
system.pc.behind_pci.pwrStateResidencyTicks::UNDEFINED 4791870884500                       # Cumulative time (in ticks) in various power states
system.pc.com_1.pwrStateResidencyTicks::UNDEFINED 4791870884500                       # Cumulative time (in ticks) in various power states
system.pc.fake_com_2.pwrStateResidencyTicks::UNDEFINED 4791870884500                       # Cumulative time (in ticks) in various power states
system.pc.fake_com_3.pwrStateResidencyTicks::UNDEFINED 4791870884500                       # Cumulative time (in ticks) in various power states
system.pc.fake_com_4.pwrStateResidencyTicks::UNDEFINED 4791870884500                       # Cumulative time (in ticks) in various power states
system.pc.fake_floppy.pwrStateResidencyTicks::UNDEFINED 4791870884500                       # Cumulative time (in ticks) in various power states
system.pc.i_dont_exist1.pwrStateResidencyTicks::UNDEFINED 4791870884500                       # Cumulative time (in ticks) in various power states
system.pc.i_dont_exist2.pwrStateResidencyTicks::UNDEFINED 4791870884500                       # Cumulative time (in ticks) in various power states
system.pc.pci_host.pwrStateResidencyTicks::UNDEFINED 4791870884500                       # Cumulative time (in ticks) in various power states
system.pc.south_bridge.cmos.pwrStateResidencyTicks::UNDEFINED 4791870884500                       # Cumulative time (in ticks) in various power states
system.pc.south_bridge.dma1.pwrStateResidencyTicks::UNDEFINED 4791870884500                       # Cumulative time (in ticks) in various power states
system.pc.south_bridge.pic2.pwrStateResidencyTicks::UNDEFINED 4791870884500                       # Cumulative time (in ticks) in various power states
system.pc.south_bridge.pic1.pwrStateResidencyTicks::UNDEFINED 4791870884500                       # Cumulative time (in ticks) in various power states
system.pc.south_bridge.io_apic.pwrStateResidencyTicks::UNDEFINED 4791870884500                       # Cumulative time (in ticks) in various power states
system.pc.south_bridge.keyboard.pwrStateResidencyTicks::UNDEFINED 4791870884500                       # Cumulative time (in ticks) in various power states
system.pc.south_bridge.pit.pwrStateResidencyTicks::UNDEFINED 4791870884500                       # Cumulative time (in ticks) in various power states
system.pc.south_bridge.speaker.pwrStateResidencyTicks::UNDEFINED 4791870884500                       # Cumulative time (in ticks) in various power states
system.pc.south_bridge.ide.disks.dma_read_full_pages            0                       # Number of full page size DMA reads (not PRD).
system.pc.south_bridge.ide.disks.dma_read_bytes            0                       # Number of bytes transfered via DMA reads (not PRD).
system.pc.south_bridge.ide.disks.dma_read_txs            0                       # Number of DMA read transactions (not PRD).
system.pc.south_bridge.ide.disks.dma_write_full_pages            0                       # Number of full page size DMA writes.
system.pc.south_bridge.ide.disks.dma_write_bytes            0                       # Number of bytes transfered via DMA writes.
system.pc.south_bridge.ide.disks.dma_write_txs            0                       # Number of DMA write transactions.
system.pc.south_bridge.ide.pwrStateResidencyTicks::UNDEFINED 4791870884500                       # Cumulative time (in ticks) in various power states
system.cpu.kern.inst.arm                            0                       # number of arm instructions executed
system.cpu.kern.inst.quiesce                        0                       # number of quiesce instructions executed

---------- End Simulation Statistics   ----------
