
---------- Begin Simulation Statistics ----------
sim_seconds                                  0.001216                       # Number of seconds simulated
sim_ticks                                  1215502000                       # Number of ticks simulated
final_tick                               4807219839000                       # Number of ticks from beginning of simulation (restored from checkpoints and never reset)
sim_freq                                 1000000000000                       # Frequency of simulated ticks
host_inst_rate                              135680197                       # Simulator instruction rate (inst/s)
host_op_rate                                320368931                       # Simulator op (including micro ops) rate (op/s)
host_tick_rate                              114290895                       # Simulator tick rate (ticks/s)
host_mem_usage                                1526396                       # Number of bytes of host memory used
host_seconds                                    10.64                       # Real time elapsed on the host
sim_insts                                  1442977896                       # Number of instructions simulated
sim_ops                                    3407172029                       # Number of ops (including micro ops) simulated
system.clk_domain.voltage_domain.voltage            1                       # Voltage in Volts
system.clk_domain.clock                           500                       # Clock period in ticks
system.mem_cntrl.pwrStateResidencyTicks::UNDEFINED 4807219839000                       # Cumulative time (in ticks) in various power states
system.mem_cntrl.bytes_read::cpu.dtb.walker        15392                       # Number of bytes read from this memory
system.mem_cntrl.bytes_read::cpu.itb.walker          328                       # Number of bytes read from this memory
system.mem_cntrl.bytes_read::cpu.inst           29824                       # Number of bytes read from this memory
system.mem_cntrl.bytes_read::cpu.data           43840                       # Number of bytes read from this memory
system.mem_cntrl.bytes_read::total              89384                       # Number of bytes read from this memory
system.mem_cntrl.bytes_inst_read::cpu.inst        29824                       # Number of instructions bytes read from this memory
system.mem_cntrl.bytes_inst_read::total         29824                       # Number of instructions bytes read from this memory
system.mem_cntrl.bytes_written::writebacks        32448                       # Number of bytes written to this memory
system.mem_cntrl.bytes_written::total           32448                       # Number of bytes written to this memory
system.mem_cntrl.num_reads::cpu.dtb.walker         1924                       # Number of read requests responded to by this memory
system.mem_cntrl.num_reads::cpu.itb.walker           41                       # Number of read requests responded to by this memory
system.mem_cntrl.num_reads::cpu.inst              466                       # Number of read requests responded to by this memory
system.mem_cntrl.num_reads::cpu.data              685                       # Number of read requests responded to by this memory
system.mem_cntrl.num_reads::total                3116                       # Number of read requests responded to by this memory
system.mem_cntrl.num_writes::writebacks           507                       # Number of write requests responded to by this memory
system.mem_cntrl.num_writes::total                507                       # Number of write requests responded to by this memory
system.mem_cntrl.bw_read::cpu.dtb.walker     12663081                       # Total read bandwidth from this memory (bytes/s)
system.mem_cntrl.bw_read::cpu.itb.walker       269847                       # Total read bandwidth from this memory (bytes/s)
system.mem_cntrl.bw_read::cpu.inst           24536364                       # Total read bandwidth from this memory (bytes/s)
system.mem_cntrl.bw_read::cpu.data           36067403                       # Total read bandwidth from this memory (bytes/s)
system.mem_cntrl.bw_read::total              73536695                       # Total read bandwidth from this memory (bytes/s)
system.mem_cntrl.bw_inst_read::cpu.inst      24536364                       # Instruction read bandwidth from this memory (bytes/s)
system.mem_cntrl.bw_inst_read::total         24536364                       # Instruction read bandwidth from this memory (bytes/s)
system.mem_cntrl.bw_write::writebacks        26695143                       # Write bandwidth from this memory (bytes/s)
system.mem_cntrl.bw_write::total             26695143                       # Write bandwidth from this memory (bytes/s)
system.mem_cntrl.bw_total::writebacks        26695143                       # Total bandwidth to/from this memory (bytes/s)
system.mem_cntrl.bw_total::cpu.dtb.walker     12663081                       # Total bandwidth to/from this memory (bytes/s)
system.mem_cntrl.bw_total::cpu.itb.walker       269847                       # Total bandwidth to/from this memory (bytes/s)
system.mem_cntrl.bw_total::cpu.inst          24536364                       # Total bandwidth to/from this memory (bytes/s)
system.mem_cntrl.bw_total::cpu.data          36067403                       # Total bandwidth to/from this memory (bytes/s)
system.mem_cntrl.bw_total::total            100231838                       # Total bandwidth to/from this memory (bytes/s)
system.mem_cntrl.readReqs                        3116                       # Number of read requests accepted
system.mem_cntrl.writeReqs                        507                       # Number of write requests accepted
system.mem_cntrl.readBursts                      3116                       # Number of DRAM read bursts, including those serviced by the write queue
system.mem_cntrl.writeBursts                      507                       # Number of DRAM write bursts, including those merged in the write queue
system.mem_cntrl.bytesReadDRAM                 199296                       # Total number of bytes read from DRAM
system.mem_cntrl.bytesReadWrQ                     128                       # Total number of bytes read from write queue
system.mem_cntrl.bytesWritten                   32832                       # Total number of bytes written to DRAM
system.mem_cntrl.bytesReadSys                   89384                       # Total read bytes from the system interface side
system.mem_cntrl.bytesWrittenSys                32448                       # Total written bytes from the system interface side
system.mem_cntrl.servicedByWrQ                      2                       # Number of DRAM read bursts serviced by the write queue
system.mem_cntrl.mergedWrBursts                     0                       # Number of DRAM write bursts merged with an existing one
system.mem_cntrl.neitherReadNorWriteReqs            0                       # Number of requests that are neither read nor write
system.mem_cntrl.perBankRdBursts::0                85                       # Per bank write bursts
system.mem_cntrl.perBankRdBursts::1               138                       # Per bank write bursts
system.mem_cntrl.perBankRdBursts::2                50                       # Per bank write bursts
system.mem_cntrl.perBankRdBursts::3                43                       # Per bank write bursts
system.mem_cntrl.perBankRdBursts::4               287                       # Per bank write bursts
system.mem_cntrl.perBankRdBursts::5               245                       # Per bank write bursts
system.mem_cntrl.perBankRdBursts::6               788                       # Per bank write bursts
system.mem_cntrl.perBankRdBursts::7               203                       # Per bank write bursts
system.mem_cntrl.perBankRdBursts::8               584                       # Per bank write bursts
system.mem_cntrl.perBankRdBursts::9               161                       # Per bank write bursts
system.mem_cntrl.perBankRdBursts::10              152                       # Per bank write bursts
system.mem_cntrl.perBankRdBursts::11              110                       # Per bank write bursts
system.mem_cntrl.perBankRdBursts::12               44                       # Per bank write bursts
system.mem_cntrl.perBankRdBursts::13               66                       # Per bank write bursts
system.mem_cntrl.perBankRdBursts::14              109                       # Per bank write bursts
system.mem_cntrl.perBankRdBursts::15               49                       # Per bank write bursts
system.mem_cntrl.perBankWrBursts::0                42                       # Per bank write bursts
system.mem_cntrl.perBankWrBursts::1                58                       # Per bank write bursts
system.mem_cntrl.perBankWrBursts::2                25                       # Per bank write bursts
system.mem_cntrl.perBankWrBursts::3                32                       # Per bank write bursts
system.mem_cntrl.perBankWrBursts::4                 7                       # Per bank write bursts
system.mem_cntrl.perBankWrBursts::5                18                       # Per bank write bursts
system.mem_cntrl.perBankWrBursts::6                32                       # Per bank write bursts
system.mem_cntrl.perBankWrBursts::7                13                       # Per bank write bursts
system.mem_cntrl.perBankWrBursts::8                21                       # Per bank write bursts
system.mem_cntrl.perBankWrBursts::9                81                       # Per bank write bursts
system.mem_cntrl.perBankWrBursts::10               53                       # Per bank write bursts
system.mem_cntrl.perBankWrBursts::11               28                       # Per bank write bursts
system.mem_cntrl.perBankWrBursts::12               21                       # Per bank write bursts
system.mem_cntrl.perBankWrBursts::13               35                       # Per bank write bursts
system.mem_cntrl.perBankWrBursts::14               25                       # Per bank write bursts
system.mem_cntrl.perBankWrBursts::15               22                       # Per bank write bursts
system.mem_cntrl.numRdRetry                         0                       # Number of times read queue was full causing retry
system.mem_cntrl.numWrRetry                         0                       # Number of times write queue was full causing retry
system.mem_cntrl.totGap                    1212373000                       # Total gap between requests
system.mem_cntrl.readPktSize::0                     0                       # Read request sizes (log2)
system.mem_cntrl.readPktSize::1                     0                       # Read request sizes (log2)
system.mem_cntrl.readPktSize::2                     0                       # Read request sizes (log2)
system.mem_cntrl.readPktSize::3                  1965                       # Read request sizes (log2)
system.mem_cntrl.readPktSize::4                     0                       # Read request sizes (log2)
system.mem_cntrl.readPktSize::5                     0                       # Read request sizes (log2)
system.mem_cntrl.readPktSize::6                  1151                       # Read request sizes (log2)
system.mem_cntrl.writePktSize::0                    0                       # Write request sizes (log2)
system.mem_cntrl.writePktSize::1                    0                       # Write request sizes (log2)
system.mem_cntrl.writePktSize::2                    0                       # Write request sizes (log2)
system.mem_cntrl.writePktSize::3                    0                       # Write request sizes (log2)
system.mem_cntrl.writePktSize::4                    0                       # Write request sizes (log2)
system.mem_cntrl.writePktSize::5                    0                       # Write request sizes (log2)
system.mem_cntrl.writePktSize::6                  507                       # Write request sizes (log2)
system.mem_cntrl.rdQLenPdf::0                    2896                       # What read queue length does an incoming req see
system.mem_cntrl.rdQLenPdf::1                     194                       # What read queue length does an incoming req see
system.mem_cntrl.rdQLenPdf::2                      21                       # What read queue length does an incoming req see
system.mem_cntrl.rdQLenPdf::3                       3                       # What read queue length does an incoming req see
system.mem_cntrl.rdQLenPdf::4                       0                       # What read queue length does an incoming req see
system.mem_cntrl.rdQLenPdf::5                       0                       # What read queue length does an incoming req see
system.mem_cntrl.rdQLenPdf::6                       0                       # What read queue length does an incoming req see
system.mem_cntrl.rdQLenPdf::7                       0                       # What read queue length does an incoming req see
system.mem_cntrl.rdQLenPdf::8                       0                       # What read queue length does an incoming req see
system.mem_cntrl.rdQLenPdf::9                       0                       # What read queue length does an incoming req see
system.mem_cntrl.rdQLenPdf::10                      0                       # What read queue length does an incoming req see
system.mem_cntrl.rdQLenPdf::11                      0                       # What read queue length does an incoming req see
system.mem_cntrl.rdQLenPdf::12                      0                       # What read queue length does an incoming req see
system.mem_cntrl.rdQLenPdf::13                      0                       # What read queue length does an incoming req see
system.mem_cntrl.rdQLenPdf::14                      0                       # What read queue length does an incoming req see
system.mem_cntrl.rdQLenPdf::15                      0                       # What read queue length does an incoming req see
system.mem_cntrl.rdQLenPdf::16                      0                       # What read queue length does an incoming req see
system.mem_cntrl.rdQLenPdf::17                      0                       # What read queue length does an incoming req see
system.mem_cntrl.rdQLenPdf::18                      0                       # What read queue length does an incoming req see
system.mem_cntrl.rdQLenPdf::19                      0                       # What read queue length does an incoming req see
system.mem_cntrl.rdQLenPdf::20                      0                       # What read queue length does an incoming req see
system.mem_cntrl.rdQLenPdf::21                      0                       # What read queue length does an incoming req see
system.mem_cntrl.rdQLenPdf::22                      0                       # What read queue length does an incoming req see
system.mem_cntrl.rdQLenPdf::23                      0                       # What read queue length does an incoming req see
system.mem_cntrl.rdQLenPdf::24                      0                       # What read queue length does an incoming req see
system.mem_cntrl.rdQLenPdf::25                      0                       # What read queue length does an incoming req see
system.mem_cntrl.rdQLenPdf::26                      0                       # What read queue length does an incoming req see
system.mem_cntrl.rdQLenPdf::27                      0                       # What read queue length does an incoming req see
system.mem_cntrl.rdQLenPdf::28                      0                       # What read queue length does an incoming req see
system.mem_cntrl.rdQLenPdf::29                      0                       # What read queue length does an incoming req see
system.mem_cntrl.rdQLenPdf::30                      0                       # What read queue length does an incoming req see
system.mem_cntrl.rdQLenPdf::31                      0                       # What read queue length does an incoming req see
system.mem_cntrl.wrQLenPdf::0                       0                       # What write queue length does an incoming req see
system.mem_cntrl.wrQLenPdf::1                       0                       # What write queue length does an incoming req see
system.mem_cntrl.wrQLenPdf::2                       0                       # What write queue length does an incoming req see
system.mem_cntrl.wrQLenPdf::3                       0                       # What write queue length does an incoming req see
system.mem_cntrl.wrQLenPdf::4                       0                       # What write queue length does an incoming req see
system.mem_cntrl.wrQLenPdf::5                       0                       # What write queue length does an incoming req see
system.mem_cntrl.wrQLenPdf::6                       0                       # What write queue length does an incoming req see
system.mem_cntrl.wrQLenPdf::7                       0                       # What write queue length does an incoming req see
system.mem_cntrl.wrQLenPdf::8                       0                       # What write queue length does an incoming req see
system.mem_cntrl.wrQLenPdf::9                       0                       # What write queue length does an incoming req see
system.mem_cntrl.wrQLenPdf::10                      0                       # What write queue length does an incoming req see
system.mem_cntrl.wrQLenPdf::11                      0                       # What write queue length does an incoming req see
system.mem_cntrl.wrQLenPdf::12                      0                       # What write queue length does an incoming req see
system.mem_cntrl.wrQLenPdf::13                      0                       # What write queue length does an incoming req see
system.mem_cntrl.wrQLenPdf::14                      0                       # What write queue length does an incoming req see
system.mem_cntrl.wrQLenPdf::15                      8                       # What write queue length does an incoming req see
system.mem_cntrl.wrQLenPdf::16                      8                       # What write queue length does an incoming req see
system.mem_cntrl.wrQLenPdf::17                     29                       # What write queue length does an incoming req see
system.mem_cntrl.wrQLenPdf::18                     31                       # What write queue length does an incoming req see
system.mem_cntrl.wrQLenPdf::19                     30                       # What write queue length does an incoming req see
system.mem_cntrl.wrQLenPdf::20                     30                       # What write queue length does an incoming req see
system.mem_cntrl.wrQLenPdf::21                     30                       # What write queue length does an incoming req see
system.mem_cntrl.wrQLenPdf::22                     30                       # What write queue length does an incoming req see
system.mem_cntrl.wrQLenPdf::23                     30                       # What write queue length does an incoming req see
system.mem_cntrl.wrQLenPdf::24                     30                       # What write queue length does an incoming req see
system.mem_cntrl.wrQLenPdf::25                     31                       # What write queue length does an incoming req see
system.mem_cntrl.wrQLenPdf::26                     31                       # What write queue length does an incoming req see
system.mem_cntrl.wrQLenPdf::27                     31                       # What write queue length does an incoming req see
system.mem_cntrl.wrQLenPdf::28                     31                       # What write queue length does an incoming req see
system.mem_cntrl.wrQLenPdf::29                     32                       # What write queue length does an incoming req see
system.mem_cntrl.wrQLenPdf::30                     33                       # What write queue length does an incoming req see
system.mem_cntrl.wrQLenPdf::31                     31                       # What write queue length does an incoming req see
system.mem_cntrl.wrQLenPdf::32                     31                       # What write queue length does an incoming req see
system.mem_cntrl.wrQLenPdf::33                      0                       # What write queue length does an incoming req see
system.mem_cntrl.wrQLenPdf::34                      0                       # What write queue length does an incoming req see
system.mem_cntrl.wrQLenPdf::35                      0                       # What write queue length does an incoming req see
system.mem_cntrl.wrQLenPdf::36                      0                       # What write queue length does an incoming req see
system.mem_cntrl.wrQLenPdf::37                      0                       # What write queue length does an incoming req see
system.mem_cntrl.wrQLenPdf::38                      0                       # What write queue length does an incoming req see
system.mem_cntrl.wrQLenPdf::39                      0                       # What write queue length does an incoming req see
system.mem_cntrl.wrQLenPdf::40                      0                       # What write queue length does an incoming req see
system.mem_cntrl.wrQLenPdf::41                      0                       # What write queue length does an incoming req see
system.mem_cntrl.wrQLenPdf::42                      0                       # What write queue length does an incoming req see
system.mem_cntrl.wrQLenPdf::43                      0                       # What write queue length does an incoming req see
system.mem_cntrl.wrQLenPdf::44                      0                       # What write queue length does an incoming req see
system.mem_cntrl.wrQLenPdf::45                      0                       # What write queue length does an incoming req see
system.mem_cntrl.wrQLenPdf::46                      0                       # What write queue length does an incoming req see
system.mem_cntrl.wrQLenPdf::47                      0                       # What write queue length does an incoming req see
system.mem_cntrl.wrQLenPdf::48                      0                       # What write queue length does an incoming req see
system.mem_cntrl.wrQLenPdf::49                      0                       # What write queue length does an incoming req see
system.mem_cntrl.wrQLenPdf::50                      0                       # What write queue length does an incoming req see
system.mem_cntrl.wrQLenPdf::51                      0                       # What write queue length does an incoming req see
system.mem_cntrl.wrQLenPdf::52                      0                       # What write queue length does an incoming req see
system.mem_cntrl.wrQLenPdf::53                      0                       # What write queue length does an incoming req see
system.mem_cntrl.wrQLenPdf::54                      0                       # What write queue length does an incoming req see
system.mem_cntrl.wrQLenPdf::55                      0                       # What write queue length does an incoming req see
system.mem_cntrl.wrQLenPdf::56                      0                       # What write queue length does an incoming req see
system.mem_cntrl.wrQLenPdf::57                      0                       # What write queue length does an incoming req see
system.mem_cntrl.wrQLenPdf::58                      0                       # What write queue length does an incoming req see
system.mem_cntrl.wrQLenPdf::59                      0                       # What write queue length does an incoming req see
system.mem_cntrl.wrQLenPdf::60                      0                       # What write queue length does an incoming req see
system.mem_cntrl.wrQLenPdf::61                      0                       # What write queue length does an incoming req see
system.mem_cntrl.wrQLenPdf::62                      0                       # What write queue length does an incoming req see
system.mem_cntrl.wrQLenPdf::63                      0                       # What write queue length does an incoming req see
system.mem_cntrl.bytesPerActivate::samples         1064                       # Bytes accessed per row activation
system.mem_cntrl.bytesPerActivate::mean    217.804511                       # Bytes accessed per row activation
system.mem_cntrl.bytesPerActivate::gmean   135.516707                       # Bytes accessed per row activation
system.mem_cntrl.bytesPerActivate::stdev   255.110622                       # Bytes accessed per row activation
system.mem_cntrl.bytesPerActivate::0-127          525     49.34%     49.34% # Bytes accessed per row activation
system.mem_cntrl.bytesPerActivate::128-255          245     23.03%     72.37% # Bytes accessed per row activation
system.mem_cntrl.bytesPerActivate::256-383          102      9.59%     81.95% # Bytes accessed per row activation
system.mem_cntrl.bytesPerActivate::384-511           58      5.45%     87.41% # Bytes accessed per row activation
system.mem_cntrl.bytesPerActivate::512-639           32      3.01%     90.41% # Bytes accessed per row activation
system.mem_cntrl.bytesPerActivate::640-767           21      1.97%     92.39% # Bytes accessed per row activation
system.mem_cntrl.bytesPerActivate::768-895           18      1.69%     94.08% # Bytes accessed per row activation
system.mem_cntrl.bytesPerActivate::896-1023           12      1.13%     95.21% # Bytes accessed per row activation
system.mem_cntrl.bytesPerActivate::1024-1151           51      4.79%    100.00% # Bytes accessed per row activation
system.mem_cntrl.bytesPerActivate::total         1064                       # Bytes accessed per row activation
system.mem_cntrl.rdPerTurnAround::samples           31                       # Reads before turning the bus around for writes
system.mem_cntrl.rdPerTurnAround::mean      96.935484                       # Reads before turning the bus around for writes
system.mem_cntrl.rdPerTurnAround::gmean     71.587938                       # Reads before turning the bus around for writes
system.mem_cntrl.rdPerTurnAround::stdev     86.832381                       # Reads before turning the bus around for writes
system.mem_cntrl.rdPerTurnAround::16-31             5     16.13%     16.13% # Reads before turning the bus around for writes
system.mem_cntrl.rdPerTurnAround::32-47             5     16.13%     32.26% # Reads before turning the bus around for writes
system.mem_cntrl.rdPerTurnAround::48-63             7     22.58%     54.84% # Reads before turning the bus around for writes
system.mem_cntrl.rdPerTurnAround::64-79             3      9.68%     64.52% # Reads before turning the bus around for writes
system.mem_cntrl.rdPerTurnAround::80-95             1      3.23%     67.74% # Reads before turning the bus around for writes
system.mem_cntrl.rdPerTurnAround::96-111            2      6.45%     74.19% # Reads before turning the bus around for writes
system.mem_cntrl.rdPerTurnAround::112-127            1      3.23%     77.42% # Reads before turning the bus around for writes
system.mem_cntrl.rdPerTurnAround::144-159            1      3.23%     80.65% # Reads before turning the bus around for writes
system.mem_cntrl.rdPerTurnAround::160-175            1      3.23%     83.87% # Reads before turning the bus around for writes
system.mem_cntrl.rdPerTurnAround::176-191            1      3.23%     87.10% # Reads before turning the bus around for writes
system.mem_cntrl.rdPerTurnAround::208-223            1      3.23%     90.32% # Reads before turning the bus around for writes
system.mem_cntrl.rdPerTurnAround::224-239            1      3.23%     93.55% # Reads before turning the bus around for writes
system.mem_cntrl.rdPerTurnAround::304-319            1      3.23%     96.77% # Reads before turning the bus around for writes
system.mem_cntrl.rdPerTurnAround::368-383            1      3.23%    100.00% # Reads before turning the bus around for writes
system.mem_cntrl.rdPerTurnAround::total            31                       # Reads before turning the bus around for writes
system.mem_cntrl.wrPerTurnAround::samples           31                       # Writes before turning the bus around for reads
system.mem_cntrl.wrPerTurnAround::mean      16.548387                       # Writes before turning the bus around for reads
system.mem_cntrl.wrPerTurnAround::gmean     16.522589                       # Writes before turning the bus around for reads
system.mem_cntrl.wrPerTurnAround::stdev      0.960511                       # Writes before turning the bus around for reads
system.mem_cntrl.wrPerTurnAround::16               23     74.19%     74.19% # Writes before turning the bus around for reads
system.mem_cntrl.wrPerTurnAround::18                7     22.58%     96.77% # Writes before turning the bus around for reads
system.mem_cntrl.wrPerTurnAround::19                1      3.23%    100.00% # Writes before turning the bus around for reads
system.mem_cntrl.wrPerTurnAround::total            31                       # Writes before turning the bus around for reads
system.mem_cntrl.totQLat                     68924000                       # Total ticks spent queuing
system.mem_cntrl.totMemAccLat               127311500                       # Total ticks spent from burst creation until serviced by the DRAM
system.mem_cntrl.totBusLat                   15570000                       # Total ticks spent in databus transfers
system.mem_cntrl.avgQLat                     22133.59                       # Average queueing delay per DRAM burst
system.mem_cntrl.avgBusLat                    5000.00                       # Average bus latency per DRAM burst
system.mem_cntrl.avgMemAccLat                40883.59                       # Average memory access latency per DRAM burst
system.mem_cntrl.avgRdBW                       163.96                       # Average DRAM read bandwidth in MiByte/s
system.mem_cntrl.avgWrBW                        27.01                       # Average achieved write bandwidth in MiByte/s
system.mem_cntrl.avgRdBWSys                     73.54                       # Average system read bandwidth in MiByte/s
system.mem_cntrl.avgWrBWSys                     26.70                       # Average system write bandwidth in MiByte/s
system.mem_cntrl.peakBW                      12800.00                       # Theoretical peak bandwidth in MiByte/s
system.mem_cntrl.busUtil                         1.49                       # Data bus utilization in percentage
system.mem_cntrl.busUtilRead                     1.28                       # Data bus utilization in percentage for reads
system.mem_cntrl.busUtilWrite                    0.21                       # Data bus utilization in percentage for writes
system.mem_cntrl.avgRdQLen                       1.06                       # Average read queue length when enqueuing
system.mem_cntrl.avgWrQLen                      25.52                       # Average write queue length when enqueuing
system.mem_cntrl.readRowHits                     2310                       # Number of row buffer hits during reads
system.mem_cntrl.writeRowHits                     251                       # Number of row buffer hits during writes
system.mem_cntrl.readRowHitRate                 74.18                       # Row buffer hit rate for reads
system.mem_cntrl.writeRowHitRate                49.51                       # Row buffer hit rate for writes
system.mem_cntrl.avgGap                     334632.35                       # Average gap between requests
system.mem_cntrl.pageHitRate                    70.73                       # Row buffer hit rate, read and write combined
system.mem_cntrl_0.actEnergy                  4576740                       # Energy for activate commands per rank (pJ)
system.mem_cntrl_0.preEnergy                  2421210                       # Energy for precharge commands per rank (pJ)
system.mem_cntrl_0.readEnergy                13130460                       # Energy for read commands per rank (pJ)
system.mem_cntrl_0.writeEnergy                1184940                       # Energy for write commands per rank (pJ)
system.mem_cntrl_0.refreshEnergy         94039920.000000                       # Energy for refresh commands per rank (pJ)
system.mem_cntrl_0.actBackEnergy             53287590                       # Energy for active background per rank (pJ)
system.mem_cntrl_0.preBackEnergy              3246720                       # Energy for precharge background per rank (pJ)
system.mem_cntrl_0.actPowerDownEnergy       311043870                       # Energy for active power-down per rank (pJ)
system.mem_cntrl_0.prePowerDownEnergy       107691360                       # Energy for precharge power-down per rank (pJ)
system.mem_cntrl_0.selfRefreshEnergy         39054000                       # Energy for self refresh per rank (pJ)
system.mem_cntrl_0.totalEnergy              629808210                       # Total energy per rank (pJ)
system.mem_cntrl_0.averagePower            518.146585                       # Core power per rank (mW)
system.mem_cntrl_0.totalIdleTime           1087155750                       # Total Idle time Per DRAM Rank
system.mem_cntrl_0.memoryStateTime::IDLE      4710000                       # Time in different power states
system.mem_cntrl_0.memoryStateTime::REF      39876000                       # Time in different power states
system.mem_cntrl_0.memoryStateTime::SREF    127915000                       # Time in different power states
system.mem_cntrl_0.memoryStateTime::PRE_PDN    280453750                       # Time in different power states
system.mem_cntrl_0.memoryStateTime::ACT      81040750                       # Time in different power states
system.mem_cntrl_0.memoryStateTime::ACT_PDN    682088250                       # Time in different power states
system.mem_cntrl_1.actEnergy                  3041640                       # Energy for activate commands per rank (pJ)
system.mem_cntrl_1.preEnergy                  1616670                       # Energy for precharge commands per rank (pJ)
system.mem_cntrl_1.readEnergy                 9117780                       # Energy for read commands per rank (pJ)
system.mem_cntrl_1.writeEnergy                1492920                       # Energy for write commands per rank (pJ)
system.mem_cntrl_1.refreshEnergy         84820320.000000                       # Energy for refresh commands per rank (pJ)
system.mem_cntrl_1.actBackEnergy             43530330                       # Energy for active background per rank (pJ)
system.mem_cntrl_1.preBackEnergy              3544800                       # Energy for precharge background per rank (pJ)
system.mem_cntrl_1.actPowerDownEnergy       243002970                       # Energy for active power-down per rank (pJ)
system.mem_cntrl_1.prePowerDownEnergy       113167680                       # Energy for precharge power-down per rank (pJ)
system.mem_cntrl_1.selfRefreshEnergy         79823400                       # Energy for self refresh per rank (pJ)
system.mem_cntrl_1.totalEnergy              583232760                       # Total energy per rank (pJ)
system.mem_cntrl_1.averagePower            479.828713                       # Core power per rank (mW)
system.mem_cntrl_1.totalIdleTime           1108005000                       # Total Idle time Per DRAM Rank
system.mem_cntrl_1.memoryStateTime::IDLE      5868000                       # Time in different power states
system.mem_cntrl_1.memoryStateTime::REF      36000000                       # Time in different power states
system.mem_cntrl_1.memoryStateTime::SREF    286410750                       # Time in different power states
system.mem_cntrl_1.memoryStateTime::PRE_PDN    291675500                       # Time in different power states
system.mem_cntrl_1.memoryStateTime::ACT      62891000                       # Time in different power states
system.mem_cntrl_1.memoryStateTime::ACT_PDN    532889000                       # Time in different power states
system.pwrStateResidencyTicks::UNDEFINED 4807219839000                       # Cumulative time (in ticks) in various power states
system.apicbridge.pwrStateResidencyTicks::UNDEFINED 4807219839000                       # Cumulative time (in ticks) in various power states
system.bridge.pwrStateResidencyTicks::UNDEFINED 4807219839000                       # Cumulative time (in ticks) in various power states
system.cpu.branchPred.lookups                  441847                       # Number of BP lookups
system.cpu.branchPred.condPredicted            441847                       # Number of conditional branches predicted
system.cpu.branchPred.condIncorrect             48207                       # Number of conditional branches incorrect
system.cpu.branchPred.BTBLookups               380443                       # Number of BTB lookups
system.cpu.branchPred.BTBHits                       0                       # Number of BTB hits
system.cpu.branchPred.BTBCorrect                    0                       # Number of correct BTB predictions (this stat may not work properly.
system.cpu.branchPred.BTBHitPct              0.000000                       # BTB Hit Percentage
system.cpu.branchPred.usedRAS                   42150                       # Number of times the RAS was used to get a target.
system.cpu.branchPred.RASInCorrect               9055                       # Number of incorrect RAS predictions.
system.cpu.branchPred.correctpredictionPercent    89.089662                       # Correct prediction percentage
system.cpu.branchPred.indirectLookups          380443                       # Number of indirect predictor lookups.
system.cpu.branchPred.indirectHits             140802                       # Number of indirect target hits.
system.cpu.branchPred.indirectMisses           239641                       # Number of indirect misses.
system.cpu.branchPredindirectMispredicted        31143                       # Number of mispredicted indirect branches.
system.cpu.dtb.walker.pwrStateResidencyTicks::UNDEFINED 4807219839000                       # Cumulative time (in ticks) in various power states
system.cpu.dtb.rdAccesses                      358367                       # TLB accesses on read requests
system.cpu.dtb.wrAccesses                      226245                       # TLB accesses on write requests
system.cpu.dtb.rdMisses                          9187                       # TLB misses on read requests
system.cpu.dtb.wrMisses                          2025                       # TLB misses on write requests
system.cpu.apic_clk_domain.clock                 8000                       # Clock period in ticks
system.cpu.interrupts.pwrStateResidencyTicks::UNDEFINED 4807219839000                       # Cumulative time (in ticks) in various power states
system.cpu.itb.walker.pwrStateResidencyTicks::UNDEFINED 4807219839000                       # Cumulative time (in ticks) in various power states
system.cpu.itb.rdAccesses                           0                       # TLB accesses on read requests
system.cpu.itb.wrAccesses                      276927                       # TLB accesses on write requests
system.cpu.itb.rdMisses                             0                       # TLB misses on read requests
system.cpu.itb.wrMisses                          1314                       # TLB misses on write requests
system.cpu.pwrStateResidencyTicks::ON      2455820000                       # Cumulative time (in ticks) in various power states
system.cpu.numCycles                          2431004                       # number of cpu cycles simulated
system.cpu.numWorkItemsStarted                      0                       # number of work items this cpu started
system.cpu.numWorkItemsCompleted                    0                       # number of work items this cpu completed
system.cpu.fetch.icacheStallCycles             561863                       # Number of cycles fetch is stalled on an Icache miss
system.cpu.fetch.Insts                        1931914                       # Number of instructions fetch has processed
system.cpu.fetch.Branches                      441847                       # Number of branches that fetch encountered
system.cpu.fetch.predictedBranches             182952                       # Number of branches that fetch has predicted taken
system.cpu.fetch.Cycles                       1594122                       # Number of cycles fetch has run and was not squashing or blocked
system.cpu.fetch.SquashCycles                  105330                       # Number of cycles fetch has spent squashing
system.cpu.fetch.TlbCycles                      47370                       # Number of cycles fetch has spent waiting for tlb
system.cpu.fetch.MiscStallCycles                 1627                       # Number of cycles fetch has spent waiting on interrupts, or bad addresses, or out of MSHRs
system.cpu.fetch.PendingTrapStallCycles         36933                       # Number of stall cycles due to pending traps
system.cpu.fetch.PendingQuiesceStallCycles           19                       # Number of stall cycles due to pending quiesce instructions
system.cpu.fetch.IcacheWaitRetryStallCycles           10                       # Number of stall cycles due to full MSHR
system.cpu.fetch.CacheLines                    271313                       # Number of cache lines fetched
system.cpu.fetch.IcacheSquashes                 18581                       # Number of outstanding Icache misses that were squashed
system.cpu.fetch.ItlbSquashes                     636                       # Number of outstanding ITLB misses that were squashed
system.cpu.fetch.rateDist::samples            2294609                       # Number of instructions fetched each cycle (Total)
system.cpu.fetch.rateDist::mean              1.692760                       # Number of instructions fetched each cycle (Total)
system.cpu.fetch.rateDist::stdev             3.051436                       # Number of instructions fetched each cycle (Total)
system.cpu.fetch.rateDist::underflows               0      0.00%      0.00% # Number of instructions fetched each cycle (Total)
system.cpu.fetch.rateDist::0                  1664812     72.55%     72.55% # Number of instructions fetched each cycle (Total)
system.cpu.fetch.rateDist::1                    60313      2.63%     75.18% # Number of instructions fetched each cycle (Total)
system.cpu.fetch.rateDist::2                    29777      1.30%     76.48% # Number of instructions fetched each cycle (Total)
system.cpu.fetch.rateDist::3                    39239      1.71%     78.19% # Number of instructions fetched each cycle (Total)
system.cpu.fetch.rateDist::4                    38447      1.68%     79.86% # Number of instructions fetched each cycle (Total)
system.cpu.fetch.rateDist::5                    33646      1.47%     81.33% # Number of instructions fetched each cycle (Total)
system.cpu.fetch.rateDist::6                    35787      1.56%     82.89% # Number of instructions fetched each cycle (Total)
system.cpu.fetch.rateDist::7                    30806      1.34%     84.23% # Number of instructions fetched each cycle (Total)
system.cpu.fetch.rateDist::8                   361782     15.77%    100.00% # Number of instructions fetched each cycle (Total)
system.cpu.fetch.rateDist::overflows                0      0.00%    100.00% # Number of instructions fetched each cycle (Total)
system.cpu.fetch.rateDist::min_value                0                       # Number of instructions fetched each cycle (Total)
system.cpu.fetch.rateDist::max_value                8                       # Number of instructions fetched each cycle (Total)
system.cpu.fetch.rateDist::total              2294609                       # Number of instructions fetched each cycle (Total)
system.cpu.fetch.branchRate                  0.181755                       # Number of branch fetches per cycle
system.cpu.fetch.rate                        0.794698                       # Number of inst fetches per cycle
system.cpu.decode.IdleCycles                   534007                       # Number of cycles decode is idle
system.cpu.decode.BlockedCycles               1190943                       # Number of cycles decode is blocked
system.cpu.decode.RunCycles                    452231                       # Number of cycles decode is running
system.cpu.decode.UnblockCycles                 64763                       # Number of cycles decode is unblocking
system.cpu.decode.SquashCycles                  52665                       # Number of cycles decode is squashing
system.cpu.decode.DecodedInsts                3471854                       # Number of instructions handled by decode
system.cpu.rename.SquashCycles                  52665                       # Number of cycles rename is squashing
system.cpu.rename.IdleCycles                   576078                       # Number of cycles rename is idle
system.cpu.rename.BlockCycles                  534462                       # Number of cycles rename is blocking
system.cpu.rename.serializeStallCycles         356991                       # count of cycles rename stalled for serializing inst
system.cpu.rename.RunCycles                    469172                       # Number of cycles rename is running
system.cpu.rename.UnblockCycles                305241                       # Number of cycles rename is unblocking
system.cpu.rename.RenamedInsts                3266022                       # Number of instructions processed by rename
system.cpu.rename.ROBFullEvents                  3183                       # Number of times rename has blocked due to ROB full
system.cpu.rename.IQFullEvents                  30102                       # Number of times rename has blocked due to IQ full
system.cpu.rename.LQFullEvents                  24274                       # Number of times rename has blocked due to LQ full
system.cpu.rename.SQFullEvents                 231034                       # Number of times rename has blocked due to SQ full
system.cpu.rename.RenamedOperands             3607340                       # Number of destination operands rename has renamed
system.cpu.rename.RenameLookups               8253747                       # Number of register rename lookups that rename has made
system.cpu.rename.int_rename_lookups          5050069                       # Number of integer rename lookups
system.cpu.rename.fp_rename_lookups             13030                       # Number of floating rename lookups
system.cpu.rename.CommittedMaps               1974356                       # Number of HB maps that are committed
system.cpu.rename.UndoneMaps                  1632984                       # Number of HB maps that are undone due to squashing
system.cpu.rename.serializingInsts              13854                       # count of serializing insts renamed
system.cpu.rename.tempSerializingInsts          13874                       # count of temporary serializing insts renamed
system.cpu.rename.skidInsts                    288420                       # count of insts added to the skid buffer
system.cpu.memDep0.insertedLoads               434672                       # Number of loads inserted to the mem dependence unit.
system.cpu.memDep0.insertedStores              271341                       # Number of stores inserted to the mem dependence unit.
system.cpu.memDep0.conflictingLoads             30223                       # Number of conflicting loads.
system.cpu.memDep0.conflictingStores            29565                       # Number of conflicting stores.
system.cpu.iq.iqInstsAdded                    2915704                       # Number of instructions added to the IQ (excludes non-spec)
system.cpu.iq.iqNonSpecInstsAdded               16227                       # Number of non-speculative instructions added to the IQ
system.cpu.iq.iqInstsIssued                   2524784                       # Number of instructions issued
system.cpu.iq.iqSquashedInstsIssued             18335                       # Number of squashed instructions issued
system.cpu.iq.iqSquashedInstsExamined         1163003                       # Number of squashed instructions iterated over during squash; mainly for profiling
system.cpu.iq.iqSquashedOperandsExamined      1738115                       # Number of squashed operands that are examined and possibly removed from graph
system.cpu.iq.iqSquashedNonSpecRemoved           4554                       # Number of squashed non-spec instructions that were removed
system.cpu.iq.issued_per_cycle::samples       2294609                       # Number of insts issued each cycle
system.cpu.iq.issued_per_cycle::mean         1.100311                       # Number of insts issued each cycle
system.cpu.iq.issued_per_cycle::stdev        1.972803                       # Number of insts issued each cycle
system.cpu.iq.issued_per_cycle::underflows            0      0.00%      0.00% # Number of insts issued each cycle
system.cpu.iq.issued_per_cycle::0             1542508     67.22%     67.22% # Number of insts issued each cycle
system.cpu.iq.issued_per_cycle::1              194280      8.47%     75.69% # Number of insts issued each cycle
system.cpu.iq.issued_per_cycle::2              129364      5.64%     81.33% # Number of insts issued each cycle
system.cpu.iq.issued_per_cycle::3              106281      4.63%     85.96% # Number of insts issued each cycle
system.cpu.iq.issued_per_cycle::4               94919      4.14%     90.10% # Number of insts issued each cycle
system.cpu.iq.issued_per_cycle::5               82907      3.61%     93.71% # Number of insts issued each cycle
system.cpu.iq.issued_per_cycle::6               75837      3.31%     97.01% # Number of insts issued each cycle
system.cpu.iq.issued_per_cycle::7               44404      1.94%     98.95% # Number of insts issued each cycle
system.cpu.iq.issued_per_cycle::8               24109      1.05%    100.00% # Number of insts issued each cycle
system.cpu.iq.issued_per_cycle::overflows            0      0.00%    100.00% # Number of insts issued each cycle
system.cpu.iq.issued_per_cycle::min_value            0                       # Number of insts issued each cycle
system.cpu.iq.issued_per_cycle::max_value            8                       # Number of insts issued each cycle
system.cpu.iq.issued_per_cycle::total         2294609                       # Number of insts issued each cycle
system.cpu.iq.fu_full::No_OpClass                   0      0.00%      0.00% # attempts to use FU when none available
system.cpu.iq.fu_full::IntAlu                   23571     64.57%     64.57% # attempts to use FU when none available
system.cpu.iq.fu_full::IntMult                      0      0.00%     64.57% # attempts to use FU when none available
system.cpu.iq.fu_full::IntDiv                       0      0.00%     64.57% # attempts to use FU when none available
system.cpu.iq.fu_full::FloatAdd                    67      0.18%     64.76% # attempts to use FU when none available
system.cpu.iq.fu_full::FloatCmp                     0      0.00%     64.76% # attempts to use FU when none available
system.cpu.iq.fu_full::FloatCvt                     0      0.00%     64.76% # attempts to use FU when none available
system.cpu.iq.fu_full::FloatMult                    0      0.00%     64.76% # attempts to use FU when none available
system.cpu.iq.fu_full::FloatMultAcc                 0      0.00%     64.76% # attempts to use FU when none available
system.cpu.iq.fu_full::FloatDiv                     0      0.00%     64.76% # attempts to use FU when none available
system.cpu.iq.fu_full::FloatMisc                    0      0.00%     64.76% # attempts to use FU when none available
system.cpu.iq.fu_full::FloatSqrt                    0      0.00%     64.76% # attempts to use FU when none available
system.cpu.iq.fu_full::SimdAdd                      0      0.00%     64.76% # attempts to use FU when none available
system.cpu.iq.fu_full::SimdAddAcc                   0      0.00%     64.76% # attempts to use FU when none available
system.cpu.iq.fu_full::SimdAlu                      0      0.00%     64.76% # attempts to use FU when none available
system.cpu.iq.fu_full::SimdCmp                      0      0.00%     64.76% # attempts to use FU when none available
system.cpu.iq.fu_full::SimdCvt                      0      0.00%     64.76% # attempts to use FU when none available
system.cpu.iq.fu_full::SimdMisc                     0      0.00%     64.76% # attempts to use FU when none available
system.cpu.iq.fu_full::SimdMult                     0      0.00%     64.76% # attempts to use FU when none available
system.cpu.iq.fu_full::SimdMultAcc                  0      0.00%     64.76% # attempts to use FU when none available
system.cpu.iq.fu_full::SimdShift                    0      0.00%     64.76% # attempts to use FU when none available
system.cpu.iq.fu_full::SimdShiftAcc                 0      0.00%     64.76% # attempts to use FU when none available
system.cpu.iq.fu_full::SimdSqrt                     0      0.00%     64.76% # attempts to use FU when none available
system.cpu.iq.fu_full::SimdFloatAdd                 0      0.00%     64.76% # attempts to use FU when none available
system.cpu.iq.fu_full::SimdFloatAlu                 0      0.00%     64.76% # attempts to use FU when none available
system.cpu.iq.fu_full::SimdFloatCmp                 0      0.00%     64.76% # attempts to use FU when none available
system.cpu.iq.fu_full::SimdFloatCvt                 0      0.00%     64.76% # attempts to use FU when none available
system.cpu.iq.fu_full::SimdFloatDiv                 0      0.00%     64.76% # attempts to use FU when none available
system.cpu.iq.fu_full::SimdFloatMisc                0      0.00%     64.76% # attempts to use FU when none available
system.cpu.iq.fu_full::SimdFloatMult                0      0.00%     64.76% # attempts to use FU when none available
system.cpu.iq.fu_full::SimdFloatMultAcc             0      0.00%     64.76% # attempts to use FU when none available
system.cpu.iq.fu_full::SimdFloatSqrt                0      0.00%     64.76% # attempts to use FU when none available
system.cpu.iq.fu_full::MemRead                   9060     24.82%     89.58% # attempts to use FU when none available
system.cpu.iq.fu_full::MemWrite                  3743     10.25%     99.83% # attempts to use FU when none available
system.cpu.iq.fu_full::FloatMemRead                26      0.07%     99.90% # attempts to use FU when none available
system.cpu.iq.fu_full::FloatMemWrite               35      0.10%    100.00% # attempts to use FU when none available
system.cpu.iq.fu_full::IprAccess                    0      0.00%    100.00% # attempts to use FU when none available
system.cpu.iq.fu_full::InstPrefetch                 0      0.00%    100.00% # attempts to use FU when none available
system.cpu.iq.FU_type_0::No_OpClass             33687      1.33%      1.33% # Type of FU issued
system.cpu.iq.FU_type_0::IntAlu               1870069     74.07%     75.40% # Type of FU issued
system.cpu.iq.FU_type_0::IntMult                 1452      0.06%     75.46% # Type of FU issued
system.cpu.iq.FU_type_0::IntDiv                  1945      0.08%     75.54% # Type of FU issued
system.cpu.iq.FU_type_0::FloatAdd                3146      0.12%     75.66% # Type of FU issued
system.cpu.iq.FU_type_0::FloatCmp                   0      0.00%     75.66% # Type of FU issued
system.cpu.iq.FU_type_0::FloatCvt                   0      0.00%     75.66% # Type of FU issued
system.cpu.iq.FU_type_0::FloatMult                  0      0.00%     75.66% # Type of FU issued
system.cpu.iq.FU_type_0::FloatMultAcc               0      0.00%     75.66% # Type of FU issued
system.cpu.iq.FU_type_0::FloatDiv                   0      0.00%     75.66% # Type of FU issued
system.cpu.iq.FU_type_0::FloatMisc                  0      0.00%     75.66% # Type of FU issued
system.cpu.iq.FU_type_0::FloatSqrt                  0      0.00%     75.66% # Type of FU issued
system.cpu.iq.FU_type_0::SimdAdd                    0      0.00%     75.66% # Type of FU issued
system.cpu.iq.FU_type_0::SimdAddAcc                 0      0.00%     75.66% # Type of FU issued
system.cpu.iq.FU_type_0::SimdAlu                    0      0.00%     75.66% # Type of FU issued
system.cpu.iq.FU_type_0::SimdCmp                    0      0.00%     75.66% # Type of FU issued
system.cpu.iq.FU_type_0::SimdCvt                    0      0.00%     75.66% # Type of FU issued
system.cpu.iq.FU_type_0::SimdMisc                   0      0.00%     75.66% # Type of FU issued
system.cpu.iq.FU_type_0::SimdMult                   0      0.00%     75.66% # Type of FU issued
system.cpu.iq.FU_type_0::SimdMultAcc                0      0.00%     75.66% # Type of FU issued
system.cpu.iq.FU_type_0::SimdShift                  0      0.00%     75.66% # Type of FU issued
system.cpu.iq.FU_type_0::SimdShiftAcc               0      0.00%     75.66% # Type of FU issued
system.cpu.iq.FU_type_0::SimdSqrt                   0      0.00%     75.66% # Type of FU issued
system.cpu.iq.FU_type_0::SimdFloatAdd               0      0.00%     75.66% # Type of FU issued
system.cpu.iq.FU_type_0::SimdFloatAlu               0      0.00%     75.66% # Type of FU issued
system.cpu.iq.FU_type_0::SimdFloatCmp               0      0.00%     75.66% # Type of FU issued
system.cpu.iq.FU_type_0::SimdFloatCvt               0      0.00%     75.66% # Type of FU issued
system.cpu.iq.FU_type_0::SimdFloatDiv               0      0.00%     75.66% # Type of FU issued
system.cpu.iq.FU_type_0::SimdFloatMisc              0      0.00%     75.66% # Type of FU issued
system.cpu.iq.FU_type_0::SimdFloatMult              0      0.00%     75.66% # Type of FU issued
system.cpu.iq.FU_type_0::SimdFloatMultAcc            0      0.00%     75.66% # Type of FU issued
system.cpu.iq.FU_type_0::SimdFloatSqrt              0      0.00%     75.66% # Type of FU issued
system.cpu.iq.FU_type_0::MemRead               376413     14.91%     90.57% # Type of FU issued
system.cpu.iq.FU_type_0::MemWrite              236415      9.36%     99.93% # Type of FU issued
system.cpu.iq.FU_type_0::FloatMemRead            1517      0.06%     99.99% # Type of FU issued
system.cpu.iq.FU_type_0::FloatMemWrite            140      0.01%    100.00% # Type of FU issued
system.cpu.iq.FU_type_0::IprAccess                  0      0.00%    100.00% # Type of FU issued
system.cpu.iq.FU_type_0::InstPrefetch               0      0.00%    100.00% # Type of FU issued
system.cpu.iq.FU_type_0::total                2524784                       # Type of FU issued
system.cpu.iq.rate                           1.038577                       # Inst issue rate
system.cpu.iq.fu_busy_cnt                       36502                       # FU busy when requested
system.cpu.iq.fu_busy_rate                   0.014457                       # FU busy rate (busy events/executed inst)
system.cpu.iq.int_inst_queue_reads            7388719                       # Number of integer instruction queue reads
system.cpu.iq.int_inst_queue_writes           4083742                       # Number of integer instruction queue writes
system.cpu.iq.int_inst_queue_wakeup_accesses      2365634                       # Number of integer instruction queue wakeup accesses
system.cpu.iq.fp_inst_queue_reads               10294                       # Number of floating instruction queue reads
system.cpu.iq.fp_inst_queue_writes              12378                       # Number of floating instruction queue writes
system.cpu.iq.fp_inst_queue_wakeup_accesses         4186                       # Number of floating instruction queue wakeup accesses
system.cpu.iq.int_alu_accesses                2522508                       # Number of integer alu accesses
system.cpu.iq.fp_alu_accesses                    5091                       # Number of floating point alu accesses
system.cpu.iew.lsq.thread0.forwLoads            32126                       # Number of loads that had data forwarded from stores
system.cpu.iew.lsq.thread0.invAddrLoads             0                       # Number of loads ignored due to an invalid address
system.cpu.iew.lsq.thread0.squashedLoads       175459                       # Number of loads squashed
system.cpu.iew.lsq.thread0.ignoredResponses          568                       # Number of memory responses ignored because the instruction is squashed
system.cpu.iew.lsq.thread0.memOrderViolation         1223                       # Number of memory ordering violations
system.cpu.iew.lsq.thread0.squashedStores        79890                       # Number of stores squashed
system.cpu.iew.lsq.thread0.invAddrSwpfs             0                       # Number of software prefetches ignored due to an invalid address
system.cpu.iew.lsq.thread0.blockedLoads             0                       # Number of blocked loads due to partial load-store forwarding
system.cpu.iew.lsq.thread0.rescheduledLoads         1415                       # Number of loads that were rescheduled
system.cpu.iew.lsq.thread0.cacheBlocked          2518                       # Number of times an access to memory failed due to the cache being blocked
system.cpu.iew.iewIdleCycles                        0                       # Number of cycles IEW is idle
system.cpu.iew.iewSquashCycles                  52665                       # Number of cycles IEW is squashing
system.cpu.iew.iewBlockCycles                  282955                       # Number of cycles IEW is blocking
system.cpu.iew.iewUnblockCycles                136964                       # Number of cycles IEW is unblocking
system.cpu.iew.iewDispatchedInsts             2931951                       # Number of instructions dispatched to IQ
system.cpu.iew.iewDispSquashedInsts              5046                       # Number of squashed instructions skipped by dispatch
system.cpu.iew.iewDispLoadInsts                434672                       # Number of dispatched load instructions
system.cpu.iew.iewDispStoreInsts               271341                       # Number of dispatched store instructions
system.cpu.iew.iewDispNonSpecInsts              14781                       # Number of dispatched non-speculative instructions
system.cpu.iew.iewIQFullEvents                   1114                       # Number of times the IQ has become full, causing a stall
system.cpu.iew.iewLSQFullEvents                135366                       # Number of times the LSQ has become full, causing a stall
system.cpu.iew.memOrderViolationEvents           1223                       # Number of memory order violations
system.cpu.iew.predictedTakenIncorrect          19216                       # Number of branches that were predicted taken incorrectly
system.cpu.iew.predictedNotTakenIncorrect        44490                       # Number of branches that were predicted not taken incorrectly
system.cpu.iew.branchMispredicts                63706                       # Number of branch mispredicts detected at execute
system.cpu.iew.iewExecutedInsts               2415617                       # Number of executed instructions
system.cpu.iew.iewExecLoadInsts                349135                       # Number of load instructions executed
system.cpu.iew.iewExecSquashedInsts             98097                       # Number of squashed instructions skipped in execute
system.cpu.iew.exec_swp                             0                       # number of swp insts executed
system.cpu.iew.exec_nop                            20                       # number of nop insts executed
system.cpu.iew.exec_refs                       573360                       # number of memory reference insts executed
system.cpu.iew.exec_branches                   240633                       # Number of branches executed
system.cpu.iew.exec_stores                     224225                       # Number of stores executed
system.cpu.iew.exec_rate                     0.993671                       # Inst execution rate
system.cpu.iew.wb_sent                        2386403                       # cumulative count of insts sent to commit
system.cpu.iew.wb_count                       2369820                       # cumulative count of insts written-back
system.cpu.iew.wb_producers                   1566544                       # num instructions producing a value
system.cpu.iew.wb_consumers                   2519882                       # num instructions consuming a value
system.cpu.iew.wb_rate                       0.974832                       # insts written-back per cycle
system.cpu.iew.wb_fanout                     0.621674                       # average fanout of values written-back
system.cpu.commit.commitSquashedInsts         1161717                       # The number of squashed insts skipped by commit
system.cpu.commit.commitNonSpecStalls           11673                       # The number of times commit has been forced to stall to communicate backwards
system.cpu.commit.branchMispredicts             50144                       # The number of times a branch was mispredicted
system.cpu.commit.committed_per_cycle::samples      2108047                       # Number of insts commited each cycle
system.cpu.commit.committed_per_cycle::mean     0.839131                       # Number of insts commited each cycle
system.cpu.commit.committed_per_cycle::stdev     1.922348                       # Number of insts commited each cycle
system.cpu.commit.committed_per_cycle::underflows            0      0.00%      0.00% # Number of insts commited each cycle
system.cpu.commit.committed_per_cycle::0      1574887     74.71%     74.71% # Number of insts commited each cycle
system.cpu.commit.committed_per_cycle::1       188876      8.96%     83.67% # Number of insts commited each cycle
system.cpu.commit.committed_per_cycle::2        77807      3.69%     87.36% # Number of insts commited each cycle
system.cpu.commit.committed_per_cycle::3        79815      3.79%     91.15% # Number of insts commited each cycle
system.cpu.commit.committed_per_cycle::4        44450      2.11%     93.25% # Number of insts commited each cycle
system.cpu.commit.committed_per_cycle::5        27508      1.30%     94.56% # Number of insts commited each cycle
system.cpu.commit.committed_per_cycle::6        17887      0.85%     95.41% # Number of insts commited each cycle
system.cpu.commit.committed_per_cycle::7        12205      0.58%     95.99% # Number of insts commited each cycle
system.cpu.commit.committed_per_cycle::8        84612      4.01%    100.00% # Number of insts commited each cycle
system.cpu.commit.committed_per_cycle::overflows            0      0.00%    100.00% # Number of insts commited each cycle
system.cpu.commit.committed_per_cycle::min_value            0                       # Number of insts commited each cycle
system.cpu.commit.committed_per_cycle::max_value            8                       # Number of insts commited each cycle
system.cpu.commit.committed_per_cycle::total      2108047                       # Number of insts commited each cycle
system.cpu.commit.committedInsts               945268                       # Number of instructions committed
system.cpu.commit.committedOps                1768928                       # Number of ops (including micro ops) committed
system.cpu.commit.swp_count                         0                       # Number of s/w prefetches committed
system.cpu.commit.refs                         450664                       # Number of memory references committed
system.cpu.commit.loads                        259213                       # Number of loads committed
system.cpu.commit.membars                        1116                       # Number of memory barriers committed
system.cpu.commit.branches                     189403                       # Number of branches committed
system.cpu.commit.vec_insts                         0                       # Number of committed Vector instructions.
system.cpu.commit.fp_insts                       2404                       # Number of committed floating point instructions.
system.cpu.commit.int_insts                   1751189                       # Number of committed integer instructions.
system.cpu.commit.function_calls                19921                       # Number of function calls committed.
system.cpu.commit.op_class_0::No_OpClass        14769      0.83%      0.83% # Class of committed instruction
system.cpu.commit.op_class_0::IntAlu          1298743     73.42%     74.25% # Class of committed instruction
system.cpu.commit.op_class_0::IntMult            1282      0.07%     74.33% # Class of committed instruction
system.cpu.commit.op_class_0::IntDiv             1648      0.09%     74.42% # Class of committed instruction
system.cpu.commit.op_class_0::FloatAdd           1822      0.10%     74.52% # Class of committed instruction
system.cpu.commit.op_class_0::FloatCmp              0      0.00%     74.52% # Class of committed instruction
system.cpu.commit.op_class_0::FloatCvt              0      0.00%     74.52% # Class of committed instruction
system.cpu.commit.op_class_0::FloatMult             0      0.00%     74.52% # Class of committed instruction
system.cpu.commit.op_class_0::FloatMultAcc            0      0.00%     74.52% # Class of committed instruction
system.cpu.commit.op_class_0::FloatDiv              0      0.00%     74.52% # Class of committed instruction
system.cpu.commit.op_class_0::FloatMisc             0      0.00%     74.52% # Class of committed instruction
system.cpu.commit.op_class_0::FloatSqrt             0      0.00%     74.52% # Class of committed instruction
system.cpu.commit.op_class_0::SimdAdd               0      0.00%     74.52% # Class of committed instruction
system.cpu.commit.op_class_0::SimdAddAcc            0      0.00%     74.52% # Class of committed instruction
system.cpu.commit.op_class_0::SimdAlu               0      0.00%     74.52% # Class of committed instruction
system.cpu.commit.op_class_0::SimdCmp               0      0.00%     74.52% # Class of committed instruction
system.cpu.commit.op_class_0::SimdCvt               0      0.00%     74.52% # Class of committed instruction
system.cpu.commit.op_class_0::SimdMisc              0      0.00%     74.52% # Class of committed instruction
system.cpu.commit.op_class_0::SimdMult              0      0.00%     74.52% # Class of committed instruction
system.cpu.commit.op_class_0::SimdMultAcc            0      0.00%     74.52% # Class of committed instruction
system.cpu.commit.op_class_0::SimdShift             0      0.00%     74.52% # Class of committed instruction
system.cpu.commit.op_class_0::SimdShiftAcc            0      0.00%     74.52% # Class of committed instruction
system.cpu.commit.op_class_0::SimdSqrt              0      0.00%     74.52% # Class of committed instruction
system.cpu.commit.op_class_0::SimdFloatAdd            0      0.00%     74.52% # Class of committed instruction
system.cpu.commit.op_class_0::SimdFloatAlu            0      0.00%     74.52% # Class of committed instruction
system.cpu.commit.op_class_0::SimdFloatCmp            0      0.00%     74.52% # Class of committed instruction
system.cpu.commit.op_class_0::SimdFloatCvt            0      0.00%     74.52% # Class of committed instruction
system.cpu.commit.op_class_0::SimdFloatDiv            0      0.00%     74.52% # Class of committed instruction
system.cpu.commit.op_class_0::SimdFloatMisc            0      0.00%     74.52% # Class of committed instruction
system.cpu.commit.op_class_0::SimdFloatMult            0      0.00%     74.52% # Class of committed instruction
system.cpu.commit.op_class_0::SimdFloatMultAcc            0      0.00%     74.52% # Class of committed instruction
system.cpu.commit.op_class_0::SimdFloatSqrt            0      0.00%     74.52% # Class of committed instruction
system.cpu.commit.op_class_0::MemRead          258759     14.63%     89.15% # Class of committed instruction
system.cpu.commit.op_class_0::MemWrite         191451     10.82%     99.97% # Class of committed instruction
system.cpu.commit.op_class_0::FloatMemRead          454      0.03%    100.00% # Class of committed instruction
system.cpu.commit.op_class_0::FloatMemWrite            0      0.00%    100.00% # Class of committed instruction
system.cpu.commit.op_class_0::IprAccess             0      0.00%    100.00% # Class of committed instruction
system.cpu.commit.op_class_0::InstPrefetch            0      0.00%    100.00% # Class of committed instruction
system.cpu.commit.op_class_0::total           1768928                       # Class of committed instruction
system.cpu.commit.bw_lim_events                 84612                       # number cycles where commit BW limit reached
system.cpu.rob.rob_reads                      4948514                       # The number of ROB reads
system.cpu.rob.rob_writes                     6050761                       # The number of ROB writes
system.cpu.timesIdled                            7129                       # Number of times that the entire CPU went into an idle state and unscheduled itself
system.cpu.idleCycles                          136395                       # Total number of cycles that the CPU has spent unscheduled due to idling
system.cpu.committedInsts                      945268                       # Number of Instructions Simulated
system.cpu.committedOps                       1768928                       # Number of Ops (including micro ops) Simulated
system.cpu.cpi                               2.571762                       # CPI: Cycles Per Instruction
system.cpu.cpi_total                         2.571762                       # CPI: Total CPI of All Threads
system.cpu.ipc                               0.388839                       # IPC: Instructions Per Cycle
system.cpu.ipc_total                         0.388839                       # IPC: Total IPC of All Threads
system.cpu.int_regfile_reads                  3584595                       # number of integer regfile reads
system.cpu.int_regfile_writes                 1888430                       # number of integer regfile writes
system.cpu.fp_regfile_reads                      6764                       # number of floating regfile reads
system.cpu.fp_regfile_writes                     3574                       # number of floating regfile writes
system.cpu.cc_regfile_reads                   1100616                       # number of cc regfile reads
system.cpu.cc_regfile_writes                   706779                       # number of cc regfile writes
system.cpu.misc_regfile_reads                 1097676                       # number of misc regfile reads
system.cpu.misc_regfile_writes                  13113                       # number of misc regfile writes
system.cpu.dcache.tags.pwrStateResidencyTicks::UNDEFINED 4807219839000                       # Cumulative time (in ticks) in various power states
system.cpu.dcache.tags.replacements             21412                       # number of replacements
system.cpu.dcache.tags.tagsinuse                 1024                       # Cycle average of tags in use
system.cpu.dcache.tags.total_refs              460415                       # Total number of references to valid blocks.
system.cpu.dcache.tags.sampled_refs             21412                       # Sample count of references to valid blocks.
system.cpu.dcache.tags.avg_refs             21.502662                       # Average number of references to valid blocks.
system.cpu.dcache.tags.warmup_cycle                 0                       # Cycle when the warmup percentage was hit.
system.cpu.dcache.tags.occ_blocks::cpu.data         1024                       # Average occupied blocks per requestor
system.cpu.dcache.tags.occ_percent::cpu.data            1                       # Average percentage of cache occupancy
system.cpu.dcache.tags.occ_percent::total            1                       # Average percentage of cache occupancy
system.cpu.dcache.tags.occ_task_id_blocks::1024         1024                       # Occupied blocks per task id
system.cpu.dcache.tags.age_task_id_blocks_1024::0           51                       # Occupied blocks per task id
system.cpu.dcache.tags.age_task_id_blocks_1024::1          698                       # Occupied blocks per task id
system.cpu.dcache.tags.age_task_id_blocks_1024::2          275                       # Occupied blocks per task id
system.cpu.dcache.tags.occ_task_id_percent::1024            1                       # Percentage of cache occupancy per task id
system.cpu.dcache.tags.tag_accesses           1029632                       # Number of tag accesses
system.cpu.dcache.tags.data_accesses          1029632                       # Number of data accesses
system.cpu.dcache.pwrStateResidencyTicks::UNDEFINED 4807219839000                       # Cumulative time (in ticks) in various power states
system.cpu.dcache.ReadReq_hits::cpu.data       286111                       # number of ReadReq hits
system.cpu.dcache.ReadReq_hits::total          286111                       # number of ReadReq hits
system.cpu.dcache.WriteReq_hits::cpu.data       182299                       # number of WriteReq hits
system.cpu.dcache.WriteReq_hits::total         182299                       # number of WriteReq hits
system.cpu.dcache.SoftPFReq_hits::cpu.data          529                       # number of SoftPFReq hits
system.cpu.dcache.SoftPFReq_hits::total           529                       # number of SoftPFReq hits
system.cpu.dcache.demand_hits::cpu.data        468410                       # number of demand (read+write) hits
system.cpu.dcache.demand_hits::total           468410                       # number of demand (read+write) hits
system.cpu.dcache.overall_hits::cpu.data       468939                       # number of overall hits
system.cpu.dcache.overall_hits::total          468939                       # number of overall hits
system.cpu.dcache.ReadReq_misses::cpu.data        23061                       # number of ReadReq misses
system.cpu.dcache.ReadReq_misses::total         23061                       # number of ReadReq misses
system.cpu.dcache.WriteReq_misses::cpu.data         9095                       # number of WriteReq misses
system.cpu.dcache.WriteReq_misses::total         9095                       # number of WriteReq misses
system.cpu.dcache.SoftPFReq_misses::cpu.data         3015                       # number of SoftPFReq misses
system.cpu.dcache.SoftPFReq_misses::total         3015                       # number of SoftPFReq misses
system.cpu.dcache.demand_misses::cpu.data        32156                       # number of demand (read+write) misses
system.cpu.dcache.demand_misses::total          32156                       # number of demand (read+write) misses
system.cpu.dcache.overall_misses::cpu.data        35171                       # number of overall misses
system.cpu.dcache.overall_misses::total         35171                       # number of overall misses
system.cpu.dcache.ReadReq_miss_latency::cpu.data    296404000                       # number of ReadReq miss cycles
system.cpu.dcache.ReadReq_miss_latency::total    296404000                       # number of ReadReq miss cycles
system.cpu.dcache.WriteReq_miss_latency::cpu.data    163134986                       # number of WriteReq miss cycles
system.cpu.dcache.WriteReq_miss_latency::total    163134986                       # number of WriteReq miss cycles
system.cpu.dcache.demand_miss_latency::cpu.data    459538986                       # number of demand (read+write) miss cycles
[...]
system.l2cache.demand_mshr_misses::total         1505                       # number of demand (read+write) MSHR misses
system.l2cache.overall_mshr_misses::cpu.inst          483                       # number of overall MSHR misses
system.l2cache.overall_mshr_misses::cpu.data         1022                       # number of overall MSHR misses
system.l2cache.overall_mshr_misses::total         1505                       # number of overall MSHR misses
system.l2cache.ReadReq_mshr_uncacheable::cpu.data          347                       # number of ReadReq MSHR uncacheable
system.l2cache.ReadReq_mshr_uncacheable::total          347                       # number of ReadReq MSHR uncacheable
system.l2cache.WriteReq_mshr_uncacheable::cpu.data          129                       # number of WriteReq MSHR uncacheable
system.l2cache.WriteReq_mshr_uncacheable::total          129                       # number of WriteReq MSHR uncacheable
system.l2cache.overall_mshr_uncacheable_misses::cpu.data          476                       # number of overall MSHR uncacheable misses
system.l2cache.overall_mshr_uncacheable_misses::total          476                       # number of overall MSHR uncacheable misses
system.l2cache.UpgradeReq_mshr_miss_latency::cpu.data     12467498                       # number of UpgradeReq MSHR miss cycles
system.l2cache.UpgradeReq_mshr_miss_latency::total     12467498                       # number of UpgradeReq MSHR miss cycles
system.l2cache.ReadExReq_mshr_miss_latency::cpu.data     47151500                       # number of ReadExReq MSHR miss cycles
system.l2cache.ReadExReq_mshr_miss_latency::total     47151500                       # number of ReadExReq MSHR miss cycles
system.l2cache.ReadSharedReq_mshr_miss_latency::cpu.inst     39023000                       # number of ReadSharedReq MSHR miss cycles
system.l2cache.ReadSharedReq_mshr_miss_latency::cpu.data     30182000                       # number of ReadSharedReq MSHR miss cycles
system.l2cache.ReadSharedReq_mshr_miss_latency::total     69205000                       # number of ReadSharedReq MSHR miss cycles
system.l2cache.demand_mshr_miss_latency::cpu.inst     39023000                       # number of demand (read+write) MSHR miss cycles
system.l2cache.demand_mshr_miss_latency::cpu.data     77333500                       # number of demand (read+write) MSHR miss cycles
system.l2cache.demand_mshr_miss_latency::total    116356500                       # number of demand (read+write) MSHR miss cycles
system.l2cache.overall_mshr_miss_latency::cpu.inst     39023000                       # number of overall MSHR miss cycles
system.l2cache.overall_mshr_miss_latency::cpu.data     77333500                       # number of overall MSHR miss cycles
system.l2cache.overall_mshr_miss_latency::total    116356500                       # number of overall MSHR miss cycles
system.l2cache.ReadReq_mshr_uncacheable_latency::cpu.data     75819500                       # number of ReadReq MSHR uncacheable cycles
system.l2cache.ReadReq_mshr_uncacheable_latency::total     75819500                       # number of ReadReq MSHR uncacheable cycles
system.l2cache.overall_mshr_uncacheable_latency::cpu.data     75819500                       # number of overall MSHR uncacheable cycles
system.l2cache.overall_mshr_uncacheable_latency::total     75819500                       # number of overall MSHR uncacheable cycles
system.l2cache.UpgradeReq_mshr_miss_rate::cpu.data     0.951165                       # mshr miss rate for UpgradeReq accesses
system.l2cache.UpgradeReq_mshr_miss_rate::total     0.951165                       # mshr miss rate for UpgradeReq accesses
system.l2cache.ReadExReq_mshr_miss_rate::cpu.data     0.057158                       # mshr miss rate for ReadExReq accesses
system.l2cache.ReadExReq_mshr_miss_rate::total     0.057158                       # mshr miss rate for ReadExReq accesses
system.l2cache.ReadSharedReq_mshr_miss_rate::cpu.inst     0.015310                       # mshr miss rate for ReadSharedReq accesses
system.l2cache.ReadSharedReq_mshr_miss_rate::cpu.data     0.012056                       # mshr miss rate for ReadSharedReq accesses
system.l2cache.ReadSharedReq_mshr_miss_rate::total     0.014029                       # mshr miss rate for ReadSharedReq accesses
system.l2cache.demand_mshr_miss_rate::cpu.inst     0.015310                       # mshr miss rate for demand accesses
system.l2cache.demand_mshr_miss_rate::cpu.data     0.030018                       # mshr miss rate for demand accesses
system.l2cache.demand_mshr_miss_rate::total     0.022944                       # mshr miss rate for demand accesses
system.l2cache.overall_mshr_miss_rate::cpu.inst     0.015310                       # mshr miss rate for overall accesses
system.l2cache.overall_mshr_miss_rate::cpu.data     0.030018                       # mshr miss rate for overall accesses
system.l2cache.overall_mshr_miss_rate::total     0.022944                       # mshr miss rate for overall accesses
system.l2cache.UpgradeReq_avg_mshr_miss_latency::cpu.data 14547.838973                       # average UpgradeReq mshr miss latency
system.l2cache.UpgradeReq_avg_mshr_miss_latency::total 14547.838973                       # average UpgradeReq mshr miss latency
system.l2cache.ReadExReq_avg_mshr_miss_latency::cpu.data 60840.645161                       # average ReadExReq mshr miss latency
system.l2cache.ReadExReq_avg_mshr_miss_latency::total 60840.645161                       # average ReadExReq mshr miss latency
system.l2cache.ReadSharedReq_avg_mshr_miss_latency::cpu.inst 80792.960663                       # average ReadSharedReq mshr miss latency
system.l2cache.ReadSharedReq_avg_mshr_miss_latency::cpu.data 122194.331984                       # average ReadSharedReq mshr miss latency
system.l2cache.ReadSharedReq_avg_mshr_miss_latency::total 94801.369863                       # average ReadSharedReq mshr miss latency
system.l2cache.demand_avg_mshr_miss_latency::cpu.inst 80792.960663                       # average overall mshr miss latency
system.l2cache.demand_avg_mshr_miss_latency::cpu.data 75668.786693                       # average overall mshr miss latency
system.l2cache.demand_avg_mshr_miss_latency::total 77313.289037                       # average overall mshr miss latency
system.l2cache.overall_avg_mshr_miss_latency::cpu.inst 80792.960663                       # average overall mshr miss latency
system.l2cache.overall_avg_mshr_miss_latency::cpu.data 75668.786693                       # average overall mshr miss latency
system.l2cache.overall_avg_mshr_miss_latency::total 77313.289037                       # average overall mshr miss latency
system.l2cache.ReadReq_avg_mshr_uncacheable_latency::cpu.data       218500                       # average ReadReq mshr uncacheable latency
system.l2cache.ReadReq_avg_mshr_uncacheable_latency::total       218500                       # average ReadReq mshr uncacheable latency
system.l2cache.overall_avg_mshr_uncacheable_latency::cpu.data 159284.663866                       # average overall mshr uncacheable latency
system.l2cache.overall_avg_mshr_uncacheable_latency::total 159284.663866                       # average overall mshr uncacheable latency
system.membus.snoop_filter.tot_requests         35769                       # Total number of requests made to the snoop filter.
system.membus.snoop_filter.hit_single_requests        34383                       # Number of requests hitting in the snoop filter with a single holder of the requested data.
system.membus.snoop_filter.hit_multi_requests            0                       # Number of requests hitting in the snoop filter with multiple (>1) holders of the requested data.
system.membus.snoop_filter.tot_snoops               0                       # Total number of snoops made to the snoop filter.
system.membus.snoop_filter.hit_single_snoops            0                       # Number of snoops hitting in the snoop filter with a single holder of the requested data.
system.membus.snoop_filter.hit_multi_snoops            0                       # Number of snoops hitting in the snoop filter with multiple (>1) holders of the requested data.
system.membus.pwrStateResidencyTicks::UNDEFINED 4807842654000                       # Cumulative time (in ticks) in various power states
system.membus.trans_dist::ReadReq               35544                       # Transaction distribution
system.membus.trans_dist::ReadResp              36274                       # Transaction distribution
system.membus.trans_dist::WriteReq                129                       # Transaction distribution
system.membus.trans_dist::WriteResp               129                       # Transaction distribution
system.membus.trans_dist::WritebackDirty          647                       # Transaction distribution
system.membus.trans_dist::CleanEvict              594                       # Transaction distribution
system.membus.trans_dist::UpgradeReq              976                       # Transaction distribution
system.membus.trans_dist::ReadExReq               656                       # Transaction distribution
system.membus.trans_dist::ReadExResp              656                       # Transaction distribution
system.membus.trans_dist::ReadSharedReq           730                       # Transaction distribution
system.membus.trans_dist::MessageReq              117                       # Transaction distribution
system.membus.trans_dist::MessageResp             117                       # Transaction distribution
system.membus.pkt_count_system.apicbridge.master::system.cpu.interrupts.int_slave          234                       # Packet count per connected master and slave (bytes)
system.membus.pkt_count_system.apicbridge.master::total          234                       # Packet count per connected master and slave (bytes)
system.membus.pkt_count_system.l2cache.mem_side::system.bridge.slave          936                       # Packet count per connected master and slave (bytes)
system.membus.pkt_count_system.l2cache.mem_side::system.mem_cntrl.port         4989                       # Packet count per connected master and slave (bytes)
system.membus.pkt_count_system.l2cache.mem_side::system.cpu.interrupts.pio           16                       # Packet count per connected master and slave (bytes)
system.membus.pkt_count_system.l2cache.mem_side::total         5941                       # Packet count per connected master and slave (bytes)
system.membus.pkt_count_system.cpu.itb.walker.port::system.mem_cntrl.port         7574                       # Packet count per connected master and slave (bytes)
system.membus.pkt_count_system.cpu.itb.walker.port::total         7574                       # Packet count per connected master and slave (bytes)
system.membus.pkt_count_system.cpu.dtb.walker.port::system.mem_cntrl.port        30701                       # Packet count per connected master and slave (bytes)
system.membus.pkt_count_system.cpu.dtb.walker.port::total        30701                       # Packet count per connected master and slave (bytes)
system.membus.pkt_count::total                  44450                       # Packet count per connected master and slave (bytes)
system.membus.pkt_size_system.apicbridge.master::system.cpu.interrupts.int_slave          468                       # Cumulative packet size per connected master and slave (bytes)
system.membus.pkt_size_system.apicbridge.master::total          468                       # Cumulative packet size per connected master and slave (bytes)
system.membus.pkt_size_system.l2cache.mem_side::system.bridge.slave          468                       # Cumulative packet size per connected master and slave (bytes)
system.membus.pkt_size_system.l2cache.mem_side::system.mem_cntrl.port       130112                       # Cumulative packet size per connected master and slave (bytes)
system.membus.pkt_size_system.l2cache.mem_side::system.cpu.interrupts.pio           32                       # Cumulative packet size per connected master and slave (bytes)
system.membus.pkt_size_system.l2cache.mem_side::total       130612                       # Cumulative packet size per connected master and slave (bytes)
system.membus.pkt_size_system.cpu.itb.walker.port::system.mem_cntrl.port          416                       # Cumulative packet size per connected master and slave (bytes)
system.membus.pkt_size_system.cpu.itb.walker.port::total          416                       # Cumulative packet size per connected master and slave (bytes)
system.membus.pkt_size_system.cpu.dtb.walker.port::system.mem_cntrl.port        24208                       # Cumulative packet size per connected master and slave (bytes)
system.membus.pkt_size_system.cpu.dtb.walker.port::total        24208                       # Cumulative packet size per connected master and slave (bytes)
system.membus.pkt_size::total                  155704                       # Cumulative packet size per connected master and slave (bytes)
system.membus.snoops                            32119                       # Total snoops (count)
system.membus.snoopTraffic                     256952                       # Total snoop traffic (bytes)
system.membus.snoop_fanout::samples             38152                       # Request fanout histogram
system.membus.snoop_fanout::mean             0.843101                       # Request fanout histogram
system.membus.snoop_fanout::stdev            0.363710                       # Request fanout histogram
system.membus.snoop_fanout::underflows              0      0.00%      0.00% # Request fanout histogram
system.membus.snoop_fanout::0                    5986     15.69%     15.69% # Request fanout histogram
system.membus.snoop_fanout::1                   32166     84.31%    100.00% # Request fanout histogram
system.membus.snoop_fanout::2                       0      0.00%    100.00% # Request fanout histogram
system.membus.snoop_fanout::overflows               0      0.00%    100.00% # Request fanout histogram
system.membus.snoop_fanout::min_value               0                       # Request fanout histogram
system.membus.snoop_fanout::max_value               1                       # Request fanout histogram
system.membus.snoop_fanout::total               38152                       # Request fanout histogram
system.membus.reqLayer0.occupancy              294500                       # Layer occupancy (ticks)
system.membus.reqLayer0.utilization               0.0                       # Layer utilization (%)
system.membus.reqLayer1.occupancy            20695497                       # Layer occupancy (ticks)
system.membus.reqLayer1.utilization               1.1                       # Layer utilization (%)
system.membus.reqLayer2.occupancy                8000                       # Layer occupancy (ticks)
system.membus.reqLayer2.utilization               0.0                       # Layer utilization (%)
system.membus.reqLayer3.occupancy              117000                       # Layer occupancy (ticks)
system.membus.reqLayer3.utilization               0.0                       # Layer utilization (%)
system.membus.respLayer1.occupancy              58500                       # Layer occupancy (ticks)
system.membus.respLayer1.utilization              0.0                       # Layer utilization (%)
system.membus.respLayer3.occupancy            4128250                       # Layer occupancy (ticks)
system.membus.respLayer3.utilization              0.2                       # Layer utilization (%)
system.membus.respLayer4.occupancy            7666979                       # Layer occupancy (ticks)
system.membus.respLayer4.utilization              0.4                       # Layer utilization (%)
system.membus.respLayer5.occupancy           28340662                       # Layer occupancy (ticks)
system.membus.respLayer5.utilization              1.5                       # Layer utilization (%)
system.membus.badaddr_responder.pwrStateResidencyTicks::UNDEFINED 4807842654000                       # Cumulative time (in ticks) in various power states
system.pc.behind_pci.pwrStateResidencyTicks::UNDEFINED 4807842654000                       # Cumulative time (in ticks) in various power states
system.pc.com_1.pwrStateResidencyTicks::UNDEFINED 4807842654000                       # Cumulative time (in ticks) in various power states
system.pc.fake_com_2.pwrStateResidencyTicks::UNDEFINED 4807842654000                       # Cumulative time (in ticks) in various power states
system.pc.fake_com_3.pwrStateResidencyTicks::UNDEFINED 4807842654000                       # Cumulative time (in ticks) in various power states
system.pc.fake_com_4.pwrStateResidencyTicks::UNDEFINED 4807842654000                       # Cumulative time (in ticks) in various power states
system.pc.fake_floppy.pwrStateResidencyTicks::UNDEFINED 4807842654000                       # Cumulative time (in ticks) in various power states
system.pc.i_dont_exist1.pwrStateResidencyTicks::UNDEFINED 4807842654000                       # Cumulative time (in ticks) in various power states
system.pc.i_dont_exist2.pwrStateResidencyTicks::UNDEFINED 4807842654000                       # Cumulative time (in ticks) in various power states
system.pc.pci_host.pwrStateResidencyTicks::UNDEFINED 4807842654000                       # Cumulative time (in ticks) in various power states
system.pc.south_bridge.cmos.pwrStateResidencyTicks::UNDEFINED 4807842654000                       # Cumulative time (in ticks) in various power states
system.pc.south_bridge.dma1.pwrStateResidencyTicks::UNDEFINED 4807842654000                       # Cumulative time (in ticks) in various power states
system.pc.south_bridge.pic2.pwrStateResidencyTicks::UNDEFINED 4807842654000                       # Cumulative time (in ticks) in various power states
system.pc.south_bridge.pic1.pwrStateResidencyTicks::UNDEFINED 4807842654000                       # Cumulative time (in ticks) in various power states
system.pc.south_bridge.io_apic.pwrStateResidencyTicks::UNDEFINED 4807842654000                       # Cumulative time (in ticks) in various power states
system.pc.south_bridge.keyboard.pwrStateResidencyTicks::UNDEFINED 4807842654000                       # Cumulative time (in ticks) in various power states
system.pc.south_bridge.pit.pwrStateResidencyTicks::UNDEFINED 4807842654000                       # Cumulative time (in ticks) in various power states
system.pc.south_bridge.speaker.pwrStateResidencyTicks::UNDEFINED 4807842654000                       # Cumulative time (in ticks) in various power states
system.pc.south_bridge.ide.disks.dma_read_full_pages            0                       # Number of full page size DMA reads (not PRD).
system.pc.south_bridge.ide.disks.dma_read_bytes            0                       # Number of bytes transfered via DMA reads (not PRD).
system.pc.south_bridge.ide.disks.dma_read_txs            0                       # Number of DMA read transactions (not PRD).
system.pc.south_bridge.ide.disks.dma_write_full_pages            0                       # Number of full page size DMA writes.
system.pc.south_bridge.ide.disks.dma_write_bytes            0                       # Number of bytes transfered via DMA writes.
system.pc.south_bridge.ide.disks.dma_write_txs            0                       # Number of DMA write transactions.
system.pc.south_bridge.ide.pwrStateResidencyTicks::UNDEFINED 4807842654000                       # Cumulative time (in ticks) in various power states
system.cpu.kern.inst.arm                            0                       # number of arm instructions executed
system.cpu.kern.inst.quiesce                        0                       # number of quiesce instructions executed

---------- End Simulation Statistics   ----------
