
---------- Begin Simulation Statistics ----------
sim_seconds                                  0.001243                       # Number of seconds simulated
sim_ticks                                  1243057500                       # Number of ticks simulated
final_tick                               4803290366000                       # Number of ticks from beginning of simulation (restored from checkpoints and never reset)
sim_freq                                 1000000000000                       # Frequency of simulated ticks
host_inst_rate                              130408203                       # Simulator instruction rate (inst/s)
host_op_rate                                304887026                       # Simulator op (including micro ops) rate (op/s)
host_tick_rate                              110821423                       # Simulator tick rate (ticks/s)
host_mem_usage                                1545852                       # Number of bytes of host memory used
host_seconds                                    11.22                       # Real time elapsed on the host
sim_insts                                  1462754895                       # Number of instructions simulated
sim_ops                                    3419842194                       # Number of ops (including micro ops) simulated
system.clk_domain.voltage_domain.voltage            1                       # Voltage in Volts
system.clk_domain.clock                           500                       # Clock period in ticks
system.mem_cntrl.pwrStateResidencyTicks::UNDEFINED 4803290366000                       # Cumulative time (in ticks) in various power states
system.mem_cntrl.bytes_read::cpu.dtb.walker        17272                       # Number of bytes read from this memory
system.mem_cntrl.bytes_read::cpu.itb.walker          312                       # Number of bytes read from this memory
system.mem_cntrl.bytes_read::cpu.inst           32576                       # Number of bytes read from this memory
system.mem_cntrl.bytes_read::cpu.data           43456                       # Number of bytes read from this memory
system.mem_cntrl.bytes_read::total              93616                       # Number of bytes read from this memory
system.mem_cntrl.bytes_inst_read::cpu.inst        32576                       # Number of instructions bytes read from this memory
system.mem_cntrl.bytes_inst_read::total         32576                       # Number of instructions bytes read from this memory
system.mem_cntrl.bytes_written::writebacks        36224                       # Number of bytes written to this memory
system.mem_cntrl.bytes_written::total           36224                       # Number of bytes written to this memory
system.mem_cntrl.num_reads::cpu.dtb.walker         2159                       # Number of read requests responded to by this memory
system.mem_cntrl.num_reads::cpu.itb.walker           39                       # Number of read requests responded to by this memory
system.mem_cntrl.num_reads::cpu.inst              509                       # Number of read requests responded to by this memory
system.mem_cntrl.num_reads::cpu.data              679                       # Number of read requests responded to by this memory
system.mem_cntrl.num_reads::total                3386                       # Number of read requests responded to by this memory
system.mem_cntrl.num_writes::writebacks           566                       # Number of write requests responded to by this memory
system.mem_cntrl.num_writes::total                566                       # Number of write requests responded to by this memory
system.mem_cntrl.bw_read::cpu.dtb.walker     13894772                       # Total read bandwidth from this memory (bytes/s)
system.mem_cntrl.bw_read::cpu.itb.walker       250994                       # Total read bandwidth from this memory (bytes/s)
system.mem_cntrl.bw_read::cpu.inst           26206350                       # Total read bandwidth from this memory (bytes/s)
system.mem_cntrl.bw_read::cpu.data           34958962                       # Total read bandwidth from this memory (bytes/s)
system.mem_cntrl.bw_read::total              75311078                       # Total read bandwidth from this memory (bytes/s)
system.mem_cntrl.bw_inst_read::cpu.inst      26206350                       # Instruction read bandwidth from this memory (bytes/s)
system.mem_cntrl.bw_inst_read::total         26206350                       # Instruction read bandwidth from this memory (bytes/s)
system.mem_cntrl.bw_write::writebacks        29141049                       # Write bandwidth from this memory (bytes/s)
system.mem_cntrl.bw_write::total             29141049                       # Write bandwidth from this memory (bytes/s)
system.mem_cntrl.bw_total::writebacks        29141049                       # Total bandwidth to/from this memory (bytes/s)
system.mem_cntrl.bw_total::cpu.dtb.walker     13894772                       # Total bandwidth to/from this memory (bytes/s)
system.mem_cntrl.bw_total::cpu.itb.walker       250994                       # Total bandwidth to/from this memory (bytes/s)
system.mem_cntrl.bw_total::cpu.inst          26206350                       # Total bandwidth to/from this memory (bytes/s)
system.mem_cntrl.bw_total::cpu.data          34958962                       # Total bandwidth to/from this memory (bytes/s)
system.mem_cntrl.bw_total::total            104452127                       # Total bandwidth to/from this memory (bytes/s)
system.mem_cntrl.readReqs                        3386                       # Number of read requests accepted
system.mem_cntrl.writeReqs                        566                       # Number of write requests accepted
system.mem_cntrl.readBursts                      3386                       # Number of DRAM read bursts, including those serviced by the write queue
system.mem_cntrl.writeBursts                      566                       # Number of DRAM write bursts, including those merged in the write queue
system.mem_cntrl.bytesReadDRAM                 216448                       # Total number of bytes read from DRAM
system.mem_cntrl.bytesReadWrQ                     256                       # Total number of bytes read from write queue
system.mem_cntrl.bytesWritten                   36928                       # Total number of bytes written to DRAM
system.mem_cntrl.bytesReadSys                   93616                       # Total read bytes from the system interface side
system.mem_cntrl.bytesWrittenSys                36224                       # Total written bytes from the system interface side
system.mem_cntrl.servicedByWrQ                      4                       # Number of DRAM read bursts serviced by the write queue
system.mem_cntrl.mergedWrBursts                     0                       # Number of DRAM write bursts merged with an existing one
system.mem_cntrl.neitherReadNorWriteReqs            0                       # Number of requests that are neither read nor write
system.mem_cntrl.perBankRdBursts::0                50                       # Per bank write bursts
system.mem_cntrl.perBankRdBursts::1                58                       # Per bank write bursts
system.mem_cntrl.perBankRdBursts::2                23                       # Per bank write bursts
system.mem_cntrl.perBankRdBursts::3                21                       # Per bank write bursts
system.mem_cntrl.perBankRdBursts::4               301                       # Per bank write bursts
system.mem_cntrl.perBankRdBursts::5               326                       # Per bank write bursts
system.mem_cntrl.perBankRdBursts::6               871                       # Per bank write bursts
system.mem_cntrl.perBankRdBursts::7               180                       # Per bank write bursts
system.mem_cntrl.perBankRdBursts::8               764                       # Per bank write bursts
system.mem_cntrl.perBankRdBursts::9               161                       # Per bank write bursts
system.mem_cntrl.perBankRdBursts::10              147                       # Per bank write bursts
system.mem_cntrl.perBankRdBursts::11               48                       # Per bank write bursts
system.mem_cntrl.perBankRdBursts::12               58                       # Per bank write bursts
system.mem_cntrl.perBankRdBursts::13               67                       # Per bank write bursts
system.mem_cntrl.perBankRdBursts::14              188                       # Per bank write bursts
system.mem_cntrl.perBankRdBursts::15              119                       # Per bank write bursts
system.mem_cntrl.perBankWrBursts::0                26                       # Per bank write bursts
system.mem_cntrl.perBankWrBursts::1                29                       # Per bank write bursts
system.mem_cntrl.perBankWrBursts::2                10                       # Per bank write bursts
system.mem_cntrl.perBankWrBursts::3                14                       # Per bank write bursts
system.mem_cntrl.perBankWrBursts::4                 3                       # Per bank write bursts
system.mem_cntrl.perBankWrBursts::5                36                       # Per bank write bursts
system.mem_cntrl.perBankWrBursts::6                56                       # Per bank write bursts
system.mem_cntrl.perBankWrBursts::7                16                       # Per bank write bursts
system.mem_cntrl.perBankWrBursts::8                62                       # Per bank write bursts
system.mem_cntrl.perBankWrBursts::9                77                       # Per bank write bursts
system.mem_cntrl.perBankWrBursts::10               33                       # Per bank write bursts
system.mem_cntrl.perBankWrBursts::11               13                       # Per bank write bursts
system.mem_cntrl.perBankWrBursts::12               28                       # Per bank write bursts
system.mem_cntrl.perBankWrBursts::13               35                       # Per bank write bursts
system.mem_cntrl.perBankWrBursts::14               72                       # Per bank write bursts
system.mem_cntrl.perBankWrBursts::15               67                       # Per bank write bursts
system.mem_cntrl.numRdRetry                         0                       # Number of times read queue was full causing retry
system.mem_cntrl.numWrRetry                         0                       # Number of times write queue was full causing retry
system.mem_cntrl.totGap                    1240898500                       # Total gap between requests
system.mem_cntrl.readPktSize::0                     0                       # Read request sizes (log2)
system.mem_cntrl.readPktSize::1                     0                       # Read request sizes (log2)
system.mem_cntrl.readPktSize::2                     0                       # Read request sizes (log2)
system.mem_cntrl.readPktSize::3                  2198                       # Read request sizes (log2)
system.mem_cntrl.readPktSize::4                     0                       # Read request sizes (log2)
system.mem_cntrl.readPktSize::5                     0                       # Read request sizes (log2)
system.mem_cntrl.readPktSize::6                  1188                       # Read request sizes (log2)
system.mem_cntrl.writePktSize::0                    0                       # Write request sizes (log2)
system.mem_cntrl.writePktSize::1                    0                       # Write request sizes (log2)
system.mem_cntrl.writePktSize::2                    0                       # Write request sizes (log2)
system.mem_cntrl.writePktSize::3                    0                       # Write request sizes (log2)
system.mem_cntrl.writePktSize::4                    0                       # Write request sizes (log2)
system.mem_cntrl.writePktSize::5                    0                       # Write request sizes (log2)
system.mem_cntrl.writePktSize::6                  566                       # Write request sizes (log2)
system.mem_cntrl.rdQLenPdf::0                    3147                       # What read queue length does an incoming req see
system.mem_cntrl.rdQLenPdf::1                     213                       # What read queue length does an incoming req see
system.mem_cntrl.rdQLenPdf::2                      20                       # What read queue length does an incoming req see
system.mem_cntrl.rdQLenPdf::3                       2                       # What read queue length does an incoming req see
system.mem_cntrl.rdQLenPdf::4                       0                       # What read queue length does an incoming req see
system.mem_cntrl.rdQLenPdf::5                       0                       # What read queue length does an incoming req see
system.mem_cntrl.rdQLenPdf::6                       0                       # What read queue length does an incoming req see
system.mem_cntrl.rdQLenPdf::7                       0                       # What read queue length does an incoming req see
system.mem_cntrl.rdQLenPdf::8                       0                       # What read queue length does an incoming req see
system.mem_cntrl.rdQLenPdf::9                       0                       # What read queue length does an incoming req see
system.mem_cntrl.rdQLenPdf::10                      0                       # What read queue length does an incoming req see
system.mem_cntrl.rdQLenPdf::11                      0                       # What read queue length does an incoming req see
system.mem_cntrl.rdQLenPdf::12                      0                       # What read queue length does an incoming req see
system.mem_cntrl.rdQLenPdf::13                      0                       # What read queue length does an incoming req see
system.mem_cntrl.rdQLenPdf::14                      0                       # What read queue length does an incoming req see
system.mem_cntrl.rdQLenPdf::15                      0                       # What read queue length does an incoming req see
system.mem_cntrl.rdQLenPdf::16                      0                       # What read queue length does an incoming req see
system.mem_cntrl.rdQLenPdf::17                      0                       # What read queue length does an incoming req see
system.mem_cntrl.rdQLenPdf::18                      0                       # What read queue length does an incoming req see
system.mem_cntrl.rdQLenPdf::19                      0                       # What read queue length does an incoming req see
system.mem_cntrl.rdQLenPdf::20                      0                       # What read queue length does an incoming req see
system.mem_cntrl.rdQLenPdf::21                      0                       # What read queue length does an incoming req see
system.mem_cntrl.rdQLenPdf::22                      0                       # What read queue length does an incoming req see
system.mem_cntrl.rdQLenPdf::23                      0                       # What read queue length does an incoming req see
system.mem_cntrl.rdQLenPdf::24                      0                       # What read queue length does an incoming req see
system.mem_cntrl.rdQLenPdf::25                      0                       # What read queue length does an incoming req see
system.mem_cntrl.rdQLenPdf::26                      0                       # What read queue length does an incoming req see
system.mem_cntrl.rdQLenPdf::27                      0                       # What read queue length does an incoming req see
system.mem_cntrl.rdQLenPdf::28                      0                       # What read queue length does an incoming req see
system.mem_cntrl.rdQLenPdf::29                      0                       # What read queue length does an incoming req see
system.mem_cntrl.rdQLenPdf::30                      0                       # What read queue length does an incoming req see
system.mem_cntrl.rdQLenPdf::31                      0                       # What read queue length does an incoming req see
system.mem_cntrl.wrQLenPdf::0                       0                       # What write queue length does an incoming req see
system.mem_cntrl.wrQLenPdf::1                       0                       # What write queue length does an incoming req see
system.mem_cntrl.wrQLenPdf::2                       0                       # What write queue length does an incoming req see
system.mem_cntrl.wrQLenPdf::3                       0                       # What write queue length does an incoming req see
system.mem_cntrl.wrQLenPdf::4                       0                       # What write queue length does an incoming req see
system.mem_cntrl.wrQLenPdf::5                       0                       # What write queue length does an incoming req see
system.mem_cntrl.wrQLenPdf::6                       0                       # What write queue length does an incoming req see
system.mem_cntrl.wrQLenPdf::7                       0                       # What write queue length does an incoming req see
system.mem_cntrl.wrQLenPdf::8                       0                       # What write queue length does an incoming req see
system.mem_cntrl.wrQLenPdf::9                       0                       # What write queue length does an incoming req see
system.mem_cntrl.wrQLenPdf::10                      0                       # What write queue length does an incoming req see
system.mem_cntrl.wrQLenPdf::11                      0                       # What write queue length does an incoming req see
system.mem_cntrl.wrQLenPdf::12                      0                       # What write queue length does an incoming req see
system.mem_cntrl.wrQLenPdf::13                      0                       # What write queue length does an incoming req see
system.mem_cntrl.wrQLenPdf::14                      0                       # What write queue length does an incoming req see
system.mem_cntrl.wrQLenPdf::15                      8                       # What write queue length does an incoming req see
system.mem_cntrl.wrQLenPdf::16                      8                       # What write queue length does an incoming req see
system.mem_cntrl.wrQLenPdf::17                     32                       # What write queue length does an incoming req see
system.mem_cntrl.wrQLenPdf::18                     34                       # What write queue length does an incoming req see
system.mem_cntrl.wrQLenPdf::19                     34                       # What write queue length does an incoming req see
system.mem_cntrl.wrQLenPdf::20                     34                       # What write queue length does an incoming req see
system.mem_cntrl.wrQLenPdf::21                     34                       # What write queue length does an incoming req see
system.mem_cntrl.wrQLenPdf::22                     35                       # What write queue length does an incoming req see
system.mem_cntrl.wrQLenPdf::23                     34                       # What write queue length does an incoming req see
system.mem_cntrl.wrQLenPdf::24                     35                       # What write queue length does an incoming req see
system.mem_cntrl.wrQLenPdf::25                     34                       # What write queue length does an incoming req see
system.mem_cntrl.wrQLenPdf::26                     34                       # What write queue length does an incoming req see
system.mem_cntrl.wrQLenPdf::27                     34                       # What write queue length does an incoming req see
system.mem_cntrl.wrQLenPdf::28                     35                       # What write queue length does an incoming req see
system.mem_cntrl.wrQLenPdf::29                     35                       # What write queue length does an incoming req see
system.mem_cntrl.wrQLenPdf::30                     36                       # What write queue length does an incoming req see
system.mem_cntrl.wrQLenPdf::31                     35                       # What write queue length does an incoming req see
system.mem_cntrl.wrQLenPdf::32                     35                       # What write queue length does an incoming req see
system.mem_cntrl.wrQLenPdf::33                      0                       # What write queue length does an incoming req see
system.mem_cntrl.wrQLenPdf::34                      0                       # What write queue length does an incoming req see
system.mem_cntrl.wrQLenPdf::35                      0                       # What write queue length does an incoming req see
system.mem_cntrl.wrQLenPdf::36                      0                       # What write queue length does an incoming req see
system.mem_cntrl.wrQLenPdf::37                      0                       # What write queue length does an incoming req see
system.mem_cntrl.wrQLenPdf::38                      0                       # What write queue length does an incoming req see
system.mem_cntrl.wrQLenPdf::39                      0                       # What write queue length does an incoming req see
system.mem_cntrl.wrQLenPdf::40                      0                       # What write queue length does an incoming req see
system.mem_cntrl.wrQLenPdf::41                      0                       # What write queue length does an incoming req see
system.mem_cntrl.wrQLenPdf::42                      0                       # What write queue length does an incoming req see
system.mem_cntrl.wrQLenPdf::43                      0                       # What write queue length does an incoming req see
system.mem_cntrl.wrQLenPdf::44                      0                       # What write queue length does an incoming req see
system.mem_cntrl.wrQLenPdf::45                      0                       # What write queue length does an incoming req see
system.mem_cntrl.wrQLenPdf::46                      0                       # What write queue length does an incoming req see
system.mem_cntrl.wrQLenPdf::47                      0                       # What write queue length does an incoming req see
system.mem_cntrl.wrQLenPdf::48                      0                       # What write queue length does an incoming req see
system.mem_cntrl.wrQLenPdf::49                      0                       # What write queue length does an incoming req see
system.mem_cntrl.wrQLenPdf::50                      0                       # What write queue length does an incoming req see
system.mem_cntrl.wrQLenPdf::51                      0                       # What write queue length does an incoming req see
system.mem_cntrl.wrQLenPdf::52                      0                       # What write queue length does an incoming req see
system.mem_cntrl.wrQLenPdf::53                      0                       # What write queue length does an incoming req see
system.mem_cntrl.wrQLenPdf::54                      0                       # What write queue length does an incoming req see
system.mem_cntrl.wrQLenPdf::55                      0                       # What write queue length does an incoming req see
system.mem_cntrl.wrQLenPdf::56                      0                       # What write queue length does an incoming req see
system.mem_cntrl.wrQLenPdf::57                      0                       # What write queue length does an incoming req see
system.mem_cntrl.wrQLenPdf::58                      0                       # What write queue length does an incoming req see
system.mem_cntrl.wrQLenPdf::59                      0                       # What write queue length does an incoming req see
system.mem_cntrl.wrQLenPdf::60                      0                       # What write queue length does an incoming req see
system.mem_cntrl.wrQLenPdf::61                      0                       # What write queue length does an incoming req see
system.mem_cntrl.wrQLenPdf::62                      0                       # What write queue length does an incoming req see
system.mem_cntrl.wrQLenPdf::63                      0                       # What write queue length does an incoming req see
system.mem_cntrl.bytesPerActivate::samples         1172                       # Bytes accessed per row activation
system.mem_cntrl.bytesPerActivate::mean    216.354949                       # Bytes accessed per row activation
system.mem_cntrl.bytesPerActivate::gmean   134.349972                       # Bytes accessed per row activation
system.mem_cntrl.bytesPerActivate::stdev   258.341310                       # Bytes accessed per row activation
system.mem_cntrl.bytesPerActivate::0-127          572     48.81%     48.81% # Bytes accessed per row activation
system.mem_cntrl.bytesPerActivate::128-255          296     25.26%     74.06% # Bytes accessed per row activation
system.mem_cntrl.bytesPerActivate::256-383          107      9.13%     83.19% # Bytes accessed per row activation
system.mem_cntrl.bytesPerActivate::384-511           53      4.52%     87.71% # Bytes accessed per row activation
system.mem_cntrl.bytesPerActivate::512-639           28      2.39%     90.10% # Bytes accessed per row activation
system.mem_cntrl.bytesPerActivate::640-767           25      2.13%     92.24% # Bytes accessed per row activation
system.mem_cntrl.bytesPerActivate::768-895           13      1.11%     93.34% # Bytes accessed per row activation
system.mem_cntrl.bytesPerActivate::896-1023           20      1.71%     95.05% # Bytes accessed per row activation
system.mem_cntrl.bytesPerActivate::1024-1151           58      4.95%    100.00% # Bytes accessed per row activation
system.mem_cntrl.bytesPerActivate::total         1172                       # Bytes accessed per row activation
system.mem_cntrl.rdPerTurnAround::samples           35                       # Reads before turning the bus around for writes
system.mem_cntrl.rdPerTurnAround::mean     105.828571                       # Reads before turning the bus around for writes
system.mem_cntrl.rdPerTurnAround::gmean     69.361497                       # Reads before turning the bus around for writes
system.mem_cntrl.rdPerTurnAround::stdev    109.481797                       # Reads before turning the bus around for writes
system.mem_cntrl.rdPerTurnAround::16-31             7     20.00%     20.00% # Reads before turning the bus around for writes
system.mem_cntrl.rdPerTurnAround::32-47             6     17.14%     37.14% # Reads before turning the bus around for writes
system.mem_cntrl.rdPerTurnAround::48-63             7     20.00%     57.14% # Reads before turning the bus around for writes
system.mem_cntrl.rdPerTurnAround::64-79             3      8.57%     65.71% # Reads before turning the bus around for writes
system.mem_cntrl.rdPerTurnAround::80-95             1      2.86%     68.57% # Reads before turning the bus around for writes
system.mem_cntrl.rdPerTurnAround::112-127            2      5.71%     74.29% # Reads before turning the bus around for writes
system.mem_cntrl.rdPerTurnAround::128-143            1      2.86%     77.14% # Reads before turning the bus around for writes
system.mem_cntrl.rdPerTurnAround::176-191            1      2.86%     80.00% # Reads before turning the bus around for writes
system.mem_cntrl.rdPerTurnAround::192-207            1      2.86%     82.86% # Reads before turning the bus around for writes
system.mem_cntrl.rdPerTurnAround::224-239            1      2.86%     85.71% # Reads before turning the bus around for writes
system.mem_cntrl.rdPerTurnAround::240-255            1      2.86%     88.57% # Reads before turning the bus around for writes
system.mem_cntrl.rdPerTurnAround::272-287            1      2.86%     91.43% # Reads before turning the bus around for writes
system.mem_cntrl.rdPerTurnAround::304-319            1      2.86%     94.29% # Reads before turning the bus around for writes
system.mem_cntrl.rdPerTurnAround::400-415            2      5.71%    100.00% # Reads before turning the bus around for writes
system.mem_cntrl.rdPerTurnAround::total            35                       # Reads before turning the bus around for writes
system.mem_cntrl.wrPerTurnAround::samples           35                       # Writes before turning the bus around for reads
system.mem_cntrl.wrPerTurnAround::mean      16.485714                       # Writes before turning the bus around for reads
system.mem_cntrl.wrPerTurnAround::gmean     16.462011                       # Writes before turning the bus around for reads
system.mem_cntrl.wrPerTurnAround::stdev      0.919444                       # Writes before turning the bus around for reads
system.mem_cntrl.wrPerTurnAround::16               27     77.14%     77.14% # Writes before turning the bus around for reads
system.mem_cntrl.wrPerTurnAround::18                7     20.00%     97.14% # Writes before turning the bus around for reads
system.mem_cntrl.wrPerTurnAround::19                1      2.86%    100.00% # Writes before turning the bus around for reads
system.mem_cntrl.wrPerTurnAround::total            35                       # Writes before turning the bus around for reads
system.mem_cntrl.totQLat                     69577000                       # Total ticks spent queuing
system.mem_cntrl.totMemAccLat               132989500                       # Total ticks spent from burst creation until serviced by the DRAM
system.mem_cntrl.totBusLat                   16910000                       # Total ticks spent in databus transfers
system.mem_cntrl.avgQLat                     20572.74                       # Average queueing delay per DRAM burst
system.mem_cntrl.avgBusLat                    5000.00                       # Average bus latency per DRAM burst
system.mem_cntrl.avgMemAccLat                39322.74                       # Average memory access latency per DRAM burst
system.mem_cntrl.avgRdBW                       174.13                       # Average DRAM read bandwidth in MiByte/s
system.mem_cntrl.avgWrBW                        29.71                       # Average achieved write bandwidth in MiByte/s
system.mem_cntrl.avgRdBWSys                     75.31                       # Average system read bandwidth in MiByte/s
system.mem_cntrl.avgWrBWSys                     29.14                       # Average system write bandwidth in MiByte/s
system.mem_cntrl.peakBW                      12800.00                       # Theoretical peak bandwidth in MiByte/s
system.mem_cntrl.busUtil                         1.59                       # Data bus utilization in percentage
system.mem_cntrl.busUtilRead                     1.36                       # Data bus utilization in percentage for reads
system.mem_cntrl.busUtilWrite                    0.23                       # Data bus utilization in percentage for writes
system.mem_cntrl.avgRdQLen                       1.16                       # Average read queue length when enqueuing
system.mem_cntrl.avgWrQLen                      25.92                       # Average write queue length when enqueuing
system.mem_cntrl.readRowHits                     2509                       # Number of row buffer hits during reads
system.mem_cntrl.writeRowHits                     280                       # Number of row buffer hits during writes
system.mem_cntrl.readRowHitRate                 74.19                       # Row buffer hit rate for reads
system.mem_cntrl.writeRowHitRate                49.47                       # Row buffer hit rate for writes
system.mem_cntrl.avgGap                     313992.54                       # Average gap between requests
system.mem_cntrl.pageHitRate                    70.64                       # Row buffer hit rate, read and write combined
system.mem_cntrl_0.actEnergy                  4412520                       # Energy for activate commands per rank (pJ)
system.mem_cntrl_0.preEnergy                  2345310                       # Energy for precharge commands per rank (pJ)
system.mem_cntrl_0.readEnergy                13080480                       # Energy for read commands per rank (pJ)
system.mem_cntrl_0.writeEnergy                 991800                       # Energy for write commands per rank (pJ)
system.mem_cntrl_0.refreshEnergy         92196000.000000                       # Energy for refresh commands per rank (pJ)
system.mem_cntrl_0.actBackEnergy             55714080                       # Energy for active background per rank (pJ)
system.mem_cntrl_0.preBackEnergy              3013440                       # Energy for precharge background per rank (pJ)
system.mem_cntrl_0.actPowerDownEnergy       315619830                       # Energy for active power-down per rank (pJ)
system.mem_cntrl_0.prePowerDownEnergy        99648960                       # Energy for precharge power-down per rank (pJ)
system.mem_cntrl_0.selfRefreshEnergy         45901680                       # Energy for self refresh per rank (pJ)
system.mem_cntrl_0.totalEnergy              632924100                       # Total energy per rank (pJ)
system.mem_cntrl_0.averagePower            509.167195                       # Core power per rank (mW)
system.mem_cntrl_0.totalIdleTime           1114526250                       # Total Idle time Per DRAM Rank
system.mem_cntrl_0.memoryStateTime::IDLE      3894000                       # Time in different power states
system.mem_cntrl_0.memoryStateTime::REF      39084000                       # Time in different power states
system.mem_cntrl_0.memoryStateTime::SREF    163646000                       # Time in different power states
system.mem_cntrl_0.memoryStateTime::PRE_PDN    259501500                       # Time in different power states
system.mem_cntrl_0.memoryStateTime::ACT      86973000                       # Time in different power states
system.mem_cntrl_0.memoryStateTime::ACT_PDN    692122000                       # Time in different power states
system.mem_cntrl_1.actEnergy                  3969840                       # Energy for activate commands per rank (pJ)
system.mem_cntrl_1.preEnergy                  2102430                       # Energy for precharge commands per rank (pJ)
system.mem_cntrl_1.readEnergy                11109840                       # Energy for read commands per rank (pJ)
system.mem_cntrl_1.writeEnergy                2020140                       # Energy for write commands per rank (pJ)
system.mem_cntrl_1.refreshEnergy         90352080.000000                       # Energy for refresh commands per rank (pJ)
system.mem_cntrl_1.actBackEnergy             45782400                       # Energy for active background per rank (pJ)
system.mem_cntrl_1.preBackEnergy              3923520                       # Energy for precharge background per rank (pJ)
system.mem_cntrl_1.actPowerDownEnergy       276426060                       # Energy for active power-down per rank (pJ)
system.mem_cntrl_1.prePowerDownEnergy       110638080                       # Energy for precharge power-down per rank (pJ)
system.mem_cntrl_1.selfRefreshEnergy         69366900                       # Energy for self refresh per rank (pJ)
system.mem_cntrl_1.totalEnergy              615691290                       # Total energy per rank (pJ)
system.mem_cntrl_1.averagePower            495.303950                       # Core power per rank (mW)
system.mem_cntrl_1.totalIdleTime           1128601750                       # Total Idle time Per DRAM Rank
system.mem_cntrl_1.memoryStateTime::IDLE      5982000                       # Time in different power states
system.mem_cntrl_1.memoryStateTime::REF      38340000                       # Time in different power states
system.mem_cntrl_1.memoryStateTime::SREF    243004750                       # Time in different power states
system.mem_cntrl_1.memoryStateTime::PRE_PDN    287481500                       # Time in different power states
system.mem_cntrl_1.memoryStateTime::ACT      66255750                       # Time in different power states
system.mem_cntrl_1.memoryStateTime::ACT_PDN    602254750                       # Time in different power states
system.pwrStateResidencyTicks::UNDEFINED 4803290366000                       # Cumulative time (in ticks) in various power states
system.apicbridge.pwrStateResidencyTicks::UNDEFINED 4803290366000                       # Cumulative time (in ticks) in various power states
system.bridge.pwrStateResidencyTicks::UNDEFINED 4803290366000                       # Cumulative time (in ticks) in various power states
system.cpu.branchPred.lookups                  449969                       # Number of BP lookups
system.cpu.branchPred.condPredicted            449969                       # Number of conditional branches predicted
system.cpu.branchPred.condIncorrect             52799                       # Number of conditional branches incorrect
system.cpu.branchPred.BTBLookups               375927                       # Number of BTB lookups
system.cpu.branchPred.BTBHits                       0                       # Number of BTB hits
system.cpu.branchPred.BTBCorrect                    0                       # Number of correct BTB predictions (this stat may not work properly.
system.cpu.branchPred.BTBHitPct              0.000000                       # BTB Hit Percentage
system.cpu.branchPred.usedRAS                   44710                       # Number of times the RAS was used to get a target.
system.cpu.branchPred.RASInCorrect              10649                       # Number of incorrect RAS predictions.
system.cpu.branchPred.correctpredictionPercent    88.266081                       # Correct prediction percentage
system.cpu.branchPred.indirectLookups          375927                       # Number of indirect predictor lookups.
system.cpu.branchPred.indirectHits             101515                       # Number of indirect target hits.
system.cpu.branchPred.indirectMisses           274412                       # Number of indirect misses.
system.cpu.branchPredindirectMispredicted        37331                       # Number of mispredicted indirect branches.
system.cpu.dtb.walker.pwrStateResidencyTicks::UNDEFINED 4803290366000                       # Cumulative time (in ticks) in various power states
system.cpu.dtb.rdAccesses                      360528                       # TLB accesses on read requests
system.cpu.dtb.wrAccesses                      226699                       # TLB accesses on write requests
system.cpu.dtb.rdMisses                          8858                       # TLB misses on read requests
system.cpu.dtb.wrMisses                          1946                       # TLB misses on write requests
system.cpu.apic_clk_domain.clock                 8000                       # Clock period in ticks
system.cpu.interrupts.pwrStateResidencyTicks::UNDEFINED 4803290366000                       # Cumulative time (in ticks) in various power states
system.cpu.itb.walker.pwrStateResidencyTicks::UNDEFINED 4803290366000                       # Cumulative time (in ticks) in various power states
system.cpu.itb.rdAccesses                           0                       # TLB accesses on read requests
system.cpu.itb.wrAccesses                      282568                       # TLB accesses on write requests
system.cpu.itb.rdMisses                             0                       # TLB misses on read requests
system.cpu.itb.wrMisses                          1451                       # TLB misses on write requests
system.cpu.pwrStateResidencyTicks::ON      2509306000                       # Cumulative time (in ticks) in various power states
system.cpu.numCycles                          2486115                       # number of cpu cycles simulated
system.cpu.numWorkItemsStarted                      0                       # number of work items this cpu started
system.cpu.numWorkItemsCompleted                    0                       # number of work items this cpu completed
system.cpu.fetch.icacheStallCycles             578938                       # Number of cycles fetch is stalled on an Icache miss
system.cpu.fetch.Insts                        2034818                       # Number of instructions fetch has processed
system.cpu.fetch.Branches                      449969                       # Number of branches that fetch encountered
system.cpu.fetch.predictedBranches             146225                       # Number of branches that fetch has predicted taken
system.cpu.fetch.Cycles                       1608138                       # Number of cycles fetch has run and was not squashing or blocked
system.cpu.fetch.SquashCycles                  115048                       # Number of cycles fetch has spent squashing
system.cpu.fetch.TlbCycles                      49852                       # Number of cycles fetch has spent waiting for tlb
system.cpu.fetch.MiscStallCycles                 1822                       # Number of cycles fetch has spent waiting on interrupts, or bad addresses, or out of MSHRs
system.cpu.fetch.PendingTrapStallCycles         39440                       # Number of stall cycles due to pending traps
system.cpu.fetch.PendingQuiesceStallCycles           27                       # Number of stall cycles due to pending quiesce instructions
system.cpu.fetch.IcacheWaitRetryStallCycles            4                       # Number of stall cycles due to full MSHR
system.cpu.fetch.CacheLines                    276318                       # Number of cache lines fetched
system.cpu.fetch.IcacheSquashes                 20788                       # Number of outstanding Icache misses that were squashed
system.cpu.fetch.ItlbSquashes                     738                       # Number of outstanding ITLB misses that were squashed
system.cpu.fetch.rateDist::samples            2335745                       # Number of instructions fetched each cycle (Total)
system.cpu.fetch.rateDist::mean              1.721498                       # Number of instructions fetched each cycle (Total)
system.cpu.fetch.rateDist::stdev             3.084725                       # Number of instructions fetched each cycle (Total)
system.cpu.fetch.rateDist::underflows               0      0.00%      0.00% # Number of instructions fetched each cycle (Total)
system.cpu.fetch.rateDist::0                  1693490     72.50%     72.50% # Number of instructions fetched each cycle (Total)
system.cpu.fetch.rateDist::1                    57756      2.47%     74.98% # Number of instructions fetched each cycle (Total)
system.cpu.fetch.rateDist::2                    30774      1.32%     76.29% # Number of instructions fetched each cycle (Total)
system.cpu.fetch.rateDist::3                    37478      1.60%     77.90% # Number of instructions fetched each cycle (Total)
system.cpu.fetch.rateDist::4                    36276      1.55%     79.45% # Number of instructions fetched each cycle (Total)
system.cpu.fetch.rateDist::5                    33555      1.44%     80.89% # Number of instructions fetched each cycle (Total)
system.cpu.fetch.rateDist::6                    32174      1.38%     82.27% # Number of instructions fetched each cycle (Total)
system.cpu.fetch.rateDist::7                    30616      1.31%     83.58% # Number of instructions fetched each cycle (Total)
system.cpu.fetch.rateDist::8                   383626     16.42%    100.00% # Number of instructions fetched each cycle (Total)
system.cpu.fetch.rateDist::overflows                0      0.00%    100.00% # Number of instructions fetched each cycle (Total)
system.cpu.fetch.rateDist::min_value                0                       # Number of instructions fetched each cycle (Total)
system.cpu.fetch.rateDist::max_value                8                       # Number of instructions fetched each cycle (Total)
system.cpu.fetch.rateDist::total              2335745                       # Number of instructions fetched each cycle (Total)
system.cpu.fetch.branchRate                  0.180993                       # Number of branch fetches per cycle
system.cpu.fetch.rate                        0.818473                       # Number of inst fetches per cycle
system.cpu.decode.IdleCycles                   545123                       # Number of cycles decode is idle
system.cpu.decode.BlockedCycles               1205356                       # Number of cycles decode is blocked
system.cpu.decode.RunCycles                    460346                       # Number of cycles decode is running
system.cpu.decode.UnblockCycles                 67396                       # Number of cycles decode is unblocking
system.cpu.decode.SquashCycles                  57524                       # Number of cycles decode is squashing
system.cpu.decode.DecodedInsts                3600205                       # Number of instructions handled by decode
system.cpu.rename.SquashCycles                  57524                       # Number of cycles rename is squashing
system.cpu.rename.IdleCycles                   588863                       # Number of cycles rename is idle
system.cpu.rename.BlockCycles                  553627                       # Number of cycles rename is blocking
system.cpu.rename.serializeStallCycles         360662                       # count of cycles rename stalled for serializing inst
system.cpu.rename.RunCycles                    479674                       # Number of cycles rename is running
system.cpu.rename.UnblockCycles                295395                       # Number of cycles rename is unblocking
system.cpu.rename.RenamedInsts                3368446                       # Number of instructions processed by rename
system.cpu.rename.ROBFullEvents                  3241                       # Number of times rename has blocked due to ROB full
system.cpu.rename.IQFullEvents                  24412                       # Number of times rename has blocked due to IQ full
system.cpu.rename.LQFullEvents                  16995                       # Number of times rename has blocked due to LQ full
system.cpu.rename.SQFullEvents                 233956                       # Number of times rename has blocked due to SQ full
system.cpu.rename.RenamedOperands             3699838                       # Number of destination operands rename has renamed
system.cpu.rename.RenameLookups               8448934                       # Number of register rename lookups that rename has made
system.cpu.rename.int_rename_lookups          5202391                       # Number of integer rename lookups
system.cpu.rename.fp_rename_lookups             11988                       # Number of floating rename lookups
system.cpu.rename.CommittedMaps               1960363                       # Number of HB maps that are committed
system.cpu.rename.UndoneMaps                  1739521                       # Number of HB maps that are undone due to squashing
system.cpu.rename.serializingInsts              14397                       # count of serializing insts renamed
system.cpu.rename.tempSerializingInsts          14433                       # count of temporary serializing insts renamed
system.cpu.rename.skidInsts                    282373                       # count of insts added to the skid buffer
system.cpu.memDep0.insertedLoads               441414                       # Number of loads inserted to the mem dependence unit.
system.cpu.memDep0.insertedStores              278271                       # Number of stores inserted to the mem dependence unit.
system.cpu.memDep0.conflictingLoads             33310                       # Number of conflicting loads.
system.cpu.memDep0.conflictingStores            32435                       # Number of conflicting stores.
system.cpu.iq.iqInstsAdded                    2981448                       # Number of instructions added to the IQ (excludes non-spec)
system.cpu.iq.iqNonSpecInstsAdded               16957                       # Number of non-speculative instructions added to the IQ
system.cpu.iq.iqInstsIssued                   2568573                       # Number of instructions issued
system.cpu.iq.iqSquashedInstsIssued             20431                       # Number of squashed instructions issued
system.cpu.iq.iqSquashedInstsExamined         1241056                       # Number of squashed instructions iterated over during squash; mainly for profiling
system.cpu.iq.iqSquashedOperandsExamined      1813532                       # Number of squashed operands that are examined and possibly removed from graph
system.cpu.iq.iqSquashedNonSpecRemoved           5286                       # Number of squashed non-spec instructions that were removed
system.cpu.iq.issued_per_cycle::samples       2335745                       # Number of insts issued each cycle
system.cpu.iq.issued_per_cycle::mean         1.099680                       # Number of insts issued each cycle
system.cpu.iq.issued_per_cycle::stdev        1.984564                       # Number of insts issued each cycle
system.cpu.iq.issued_per_cycle::underflows            0      0.00%      0.00% # Number of insts issued each cycle
system.cpu.iq.issued_per_cycle::0             1578915     67.60%     67.60% # Number of insts issued each cycle
system.cpu.iq.issued_per_cycle::1              194173      8.31%     75.91% # Number of insts issued each cycle
system.cpu.iq.issued_per_cycle::2              127557      5.46%     81.37% # Number of insts issued each cycle
system.cpu.iq.issued_per_cycle::3              103911      4.45%     85.82% # Number of insts issued each cycle
system.cpu.iq.issued_per_cycle::4               95303      4.08%     89.90% # Number of insts issued each cycle
system.cpu.iq.issued_per_cycle::5               86528      3.70%     93.61% # Number of insts issued each cycle
system.cpu.iq.issued_per_cycle::6               77404      3.31%     96.92% # Number of insts issued each cycle
system.cpu.iq.issued_per_cycle::7               46355      1.98%     98.90% # Number of insts issued each cycle
system.cpu.iq.issued_per_cycle::8               25599      1.10%    100.00% # Number of insts issued each cycle
system.cpu.iq.issued_per_cycle::overflows            0      0.00%    100.00% # Number of insts issued each cycle
system.cpu.iq.issued_per_cycle::min_value            0                       # Number of insts issued each cycle
system.cpu.iq.issued_per_cycle::max_value            8                       # Number of insts issued each cycle
system.cpu.iq.issued_per_cycle::total         2335745                       # Number of insts issued each cycle
system.cpu.iq.fu_full::No_OpClass                   0      0.00%      0.00% # attempts to use FU when none available
system.cpu.iq.fu_full::IntAlu                   25533     66.88%     66.88% # attempts to use FU when none available
system.cpu.iq.fu_full::IntMult                      0      0.00%     66.88% # attempts to use FU when none available
system.cpu.iq.fu_full::IntDiv                       0      0.00%     66.88% # attempts to use FU when none available
system.cpu.iq.fu_full::FloatAdd                    45      0.12%     66.99% # attempts to use FU when none available
system.cpu.iq.fu_full::FloatCmp                     0      0.00%     66.99% # attempts to use FU when none available
system.cpu.iq.fu_full::FloatCvt                     0      0.00%     66.99% # attempts to use FU when none available
system.cpu.iq.fu_full::FloatMult                    0      0.00%     66.99% # attempts to use FU when none available
system.cpu.iq.fu_full::FloatMultAcc                 0      0.00%     66.99% # attempts to use FU when none available
system.cpu.iq.fu_full::FloatDiv                     0      0.00%     66.99% # attempts to use FU when none available
system.cpu.iq.fu_full::FloatMisc                    0      0.00%     66.99% # attempts to use FU when none available
system.cpu.iq.fu_full::FloatSqrt                    0      0.00%     66.99% # attempts to use FU when none available
system.cpu.iq.fu_full::SimdAdd                      0      0.00%     66.99% # attempts to use FU when none available
system.cpu.iq.fu_full::SimdAddAcc                   0      0.00%     66.99% # attempts to use FU when none available
system.cpu.iq.fu_full::SimdAlu                      0      0.00%     66.99% # attempts to use FU when none available
system.cpu.iq.fu_full::SimdCmp                      0      0.00%     66.99% # attempts to use FU when none available
system.cpu.iq.fu_full::SimdCvt                      0      0.00%     66.99% # attempts to use FU when none available
system.cpu.iq.fu_full::SimdMisc                     0      0.00%     66.99% # attempts to use FU when none available
system.cpu.iq.fu_full::SimdMult                     0      0.00%     66.99% # attempts to use FU when none available
system.cpu.iq.fu_full::SimdMultAcc                  0      0.00%     66.99% # attempts to use FU when none available
system.cpu.iq.fu_full::SimdShift                    0      0.00%     66.99% # attempts to use FU when none available
system.cpu.iq.fu_full::SimdShiftAcc                 0      0.00%     66.99% # attempts to use FU when none available
system.cpu.iq.fu_full::SimdSqrt                     0      0.00%     66.99% # attempts to use FU when none available
system.cpu.iq.fu_full::SimdFloatAdd                 0      0.00%     66.99% # attempts to use FU when none available
system.cpu.iq.fu_full::SimdFloatAlu                 0      0.00%     66.99% # attempts to use FU when none available
system.cpu.iq.fu_full::SimdFloatCmp                 0      0.00%     66.99% # attempts to use FU when none available
system.cpu.iq.fu_full::SimdFloatCvt                 0      0.00%     66.99% # attempts to use FU when none available
system.cpu.iq.fu_full::SimdFloatDiv                 0      0.00%     66.99% # attempts to use FU when none available
system.cpu.iq.fu_full::SimdFloatMisc                0      0.00%     66.99% # attempts to use FU when none available
system.cpu.iq.fu_full::SimdFloatMult                0      0.00%     66.99% # attempts to use FU when none available
system.cpu.iq.fu_full::SimdFloatMultAcc             0      0.00%     66.99% # attempts to use FU when none available
system.cpu.iq.fu_full::SimdFloatSqrt                0      0.00%     66.99% # attempts to use FU when none available
system.cpu.iq.fu_full::MemRead                   9006     23.59%     90.58% # attempts to use FU when none available
system.cpu.iq.fu_full::MemWrite                  3559      9.32%     99.90% # attempts to use FU when none available
system.cpu.iq.fu_full::FloatMemRead                12      0.03%     99.93% # attempts to use FU when none available
system.cpu.iq.fu_full::FloatMemWrite               25      0.07%    100.00% # attempts to use FU when none available
system.cpu.iq.fu_full::IprAccess                    0      0.00%    100.00% # attempts to use FU when none available
system.cpu.iq.fu_full::InstPrefetch                 0      0.00%    100.00% # attempts to use FU when none available
system.cpu.iq.FU_type_0::No_OpClass             35335      1.38%      1.38% # Type of FU issued
system.cpu.iq.FU_type_0::IntAlu               1907232     74.25%     75.63% # Type of FU issued
system.cpu.iq.FU_type_0::IntMult                 1480      0.06%     75.69% # Type of FU issued
system.cpu.iq.FU_type_0::IntDiv                  1783      0.07%     75.76% # Type of FU issued
system.cpu.iq.FU_type_0::FloatAdd                3069      0.12%     75.87% # Type of FU issued
system.cpu.iq.FU_type_0::FloatCmp                   0      0.00%     75.87% # Type of FU issued
system.cpu.iq.FU_type_0::FloatCvt                   4      0.00%     75.87% # Type of FU issued
system.cpu.iq.FU_type_0::FloatMult                  0      0.00%     75.87% # Type of FU issued
system.cpu.iq.FU_type_0::FloatMultAcc               0      0.00%     75.87% # Type of FU issued
system.cpu.iq.FU_type_0::FloatDiv                   0      0.00%     75.87% # Type of FU issued
system.cpu.iq.FU_type_0::FloatMisc                  0      0.00%     75.87% # Type of FU issued
system.cpu.iq.FU_type_0::FloatSqrt                  0      0.00%     75.87% # Type of FU issued
system.cpu.iq.FU_type_0::SimdAdd                    0      0.00%     75.87% # Type of FU issued
system.cpu.iq.FU_type_0::SimdAddAcc                 0      0.00%     75.87% # Type of FU issued
system.cpu.iq.FU_type_0::SimdAlu                    0      0.00%     75.87% # Type of FU issued
system.cpu.iq.FU_type_0::SimdCmp                    0      0.00%     75.87% # Type of FU issued
system.cpu.iq.FU_type_0::SimdCvt                    0      0.00%     75.87% # Type of FU issued
system.cpu.iq.FU_type_0::SimdMisc                   0      0.00%     75.87% # Type of FU issued
system.cpu.iq.FU_type_0::SimdMult                   0      0.00%     75.87% # Type of FU issued
system.cpu.iq.FU_type_0::SimdMultAcc                0      0.00%     75.87% # Type of FU issued
system.cpu.iq.FU_type_0::SimdShift                  0      0.00%     75.87% # Type of FU issued
system.cpu.iq.FU_type_0::SimdShiftAcc               0      0.00%     75.87% # Type of FU issued
system.cpu.iq.FU_type_0::SimdSqrt                   0      0.00%     75.87% # Type of FU issued
system.cpu.iq.FU_type_0::SimdFloatAdd               0      0.00%     75.87% # Type of FU issued
system.cpu.iq.FU_type_0::SimdFloatAlu               0      0.00%     75.87% # Type of FU issued
system.cpu.iq.FU_type_0::SimdFloatCmp               0      0.00%     75.87% # Type of FU issued
system.cpu.iq.FU_type_0::SimdFloatCvt               0      0.00%     75.87% # Type of FU issued
system.cpu.iq.FU_type_0::SimdFloatDiv               0      0.00%     75.87% # Type of FU issued
system.cpu.iq.FU_type_0::SimdFloatMisc              0      0.00%     75.87% # Type of FU issued
system.cpu.iq.FU_type_0::SimdFloatMult              0      0.00%     75.87% # Type of FU issued
system.cpu.iq.FU_type_0::SimdFloatMultAcc            0      0.00%     75.87% # Type of FU issued
system.cpu.iq.FU_type_0::SimdFloatSqrt              0      0.00%     75.87% # Type of FU issued
system.cpu.iq.FU_type_0::MemRead               380174     14.80%     90.68% # Type of FU issued
system.cpu.iq.FU_type_0::MemWrite              237959      9.26%     99.94% # Type of FU issued
system.cpu.iq.FU_type_0::FloatMemRead            1417      0.06%    100.00% # Type of FU issued
system.cpu.iq.FU_type_0::FloatMemWrite            120      0.00%    100.00% # Type of FU issued
system.cpu.iq.FU_type_0::IprAccess                  0      0.00%    100.00% # Type of FU issued
system.cpu.iq.FU_type_0::InstPrefetch               0      0.00%    100.00% # Type of FU issued
system.cpu.iq.FU_type_0::total                2568573                       # Type of FU issued
system.cpu.iq.rate                           1.033167                       # Inst issue rate
system.cpu.iq.fu_busy_cnt                       38180                       # FU busy when requested
system.cpu.iq.fu_busy_rate                   0.014864                       # FU busy rate (busy events/executed inst)
system.cpu.iq.int_inst_queue_reads            7521619                       # Number of integer instruction queue reads
system.cpu.iq.int_inst_queue_writes           4229396                       # Number of integer instruction queue writes
system.cpu.iq.int_inst_queue_wakeup_accesses      2398788                       # Number of integer instruction queue wakeup accesses
system.cpu.iq.fp_inst_queue_reads                9883                       # Number of floating instruction queue reads
system.cpu.iq.fp_inst_queue_writes              11298                       # Number of floating instruction queue writes
system.cpu.iq.fp_inst_queue_wakeup_accesses         4172                       # Number of floating instruction queue wakeup accesses
system.cpu.iq.int_alu_accesses                2566556                       # Number of integer alu accesses
system.cpu.iq.fp_alu_accesses                    4862                       # Number of floating point alu accesses
system.cpu.iew.lsq.thread0.forwLoads            31608                       # Number of loads that had data forwarded from stores
system.cpu.iew.lsq.thread0.invAddrLoads             0                       # Number of loads ignored due to an invalid address
system.cpu.iew.lsq.thread0.squashedLoads       183641                       # Number of loads squashed
system.cpu.iew.lsq.thread0.ignoredResponses          668                       # Number of memory responses ignored because the instruction is squashed
system.cpu.iew.lsq.thread0.memOrderViolation         1269                       # Number of memory ordering violations
system.cpu.iew.lsq.thread0.squashedStores        88113                       # Number of stores squashed
system.cpu.iew.lsq.thread0.invAddrSwpfs             0                       # Number of software prefetches ignored due to an invalid address
system.cpu.iew.lsq.thread0.blockedLoads             0                       # Number of blocked loads due to partial load-store forwarding
system.cpu.iew.lsq.thread0.rescheduledLoads         1385                       # Number of loads that were rescheduled
system.cpu.iew.lsq.thread0.cacheBlocked          2137                       # Number of times an access to memory failed due to the cache being blocked
system.cpu.iew.iewIdleCycles                        0                       # Number of cycles IEW is idle
system.cpu.iew.iewSquashCycles                  57524                       # Number of cycles IEW is squashing
system.cpu.iew.iewBlockCycles                  295817                       # Number of cycles IEW is blocking
system.cpu.iew.iewUnblockCycles                147237                       # Number of cycles IEW is unblocking
system.cpu.iew.iewDispatchedInsts             2998408                       # Number of instructions dispatched to IQ
system.cpu.iew.iewDispSquashedInsts              5094                       # Number of squashed instructions skipped by dispatch
system.cpu.iew.iewDispLoadInsts                441414                       # Number of dispatched load instructions
system.cpu.iew.iewDispStoreInsts               278271                       # Number of dispatched store instructions
system.cpu.iew.iewDispNonSpecInsts              15444                       # Number of dispatched non-speculative instructions
system.cpu.iew.iewIQFullEvents                   1227                       # Number of times the IQ has become full, causing a stall
system.cpu.iew.iewLSQFullEvents                145558                       # Number of times the LSQ has become full, causing a stall
system.cpu.iew.memOrderViolationEvents           1269                       # Number of memory order violations
system.cpu.iew.predictedTakenIncorrect          16184                       # Number of branches that were predicted taken incorrectly
system.cpu.iew.predictedNotTakenIncorrect        54860                       # Number of branches that were predicted not taken incorrectly
system.cpu.iew.branchMispredicts                71044                       # Number of branch mispredicts detected at execute
system.cpu.iew.iewExecutedInsts               2450125                       # Number of executed instructions
system.cpu.iew.iewExecLoadInsts                351639                       # Number of load instructions executed
system.cpu.iew.iewExecSquashedInsts            107764                       # Number of squashed instructions skipped in execute
system.cpu.iew.exec_swp                             0                       # number of swp insts executed
system.cpu.iew.exec_nop                             3                       # number of nop insts executed
system.cpu.iew.exec_refs                       576387                       # number of memory reference insts executed
system.cpu.iew.exec_branches                   243357                       # Number of branches executed
system.cpu.iew.exec_stores                     224748                       # Number of stores executed
system.cpu.iew.exec_rate                     0.985524                       # Inst execution rate
system.cpu.iew.wb_sent                        2420820                       # cumulative count of insts sent to commit
system.cpu.iew.wb_count                       2402960                       # cumulative count of insts written-back
system.cpu.iew.wb_producers                   1581865                       # num instructions producing a value
system.cpu.iew.wb_consumers                   2540383                       # num instructions consuming a value
system.cpu.iew.wb_rate                       0.966552                       # insts written-back per cycle
system.cpu.iew.wb_fanout                     0.622688                       # average fanout of values written-back
system.cpu.commit.commitSquashedInsts         1239772                       # The number of squashed insts skipped by commit
system.cpu.commit.commitNonSpecStalls           11671                       # The number of times commit has been forced to stall to communicate backwards
system.cpu.commit.branchMispredicts             54958                       # The number of times a branch was mispredicted
system.cpu.commit.committed_per_cycle::samples      2131735                       # Number of insts commited each cycle
system.cpu.commit.committed_per_cycle::mean     0.824391                       # Number of insts commited each cycle
system.cpu.commit.committed_per_cycle::stdev     1.906691                       # Number of insts commited each cycle
system.cpu.commit.committed_per_cycle::underflows            0      0.00%      0.00% # Number of insts commited each cycle
system.cpu.commit.committed_per_cycle::0      1600060     75.06%     75.06% # Number of insts commited each cycle
system.cpu.commit.committed_per_cycle::1       190398      8.93%     83.99% # Number of insts commited each cycle
system.cpu.commit.committed_per_cycle::2        76892      3.61%     87.60% # Number of insts commited each cycle
system.cpu.commit.committed_per_cycle::3        78466      3.68%     91.28% # Number of insts commited each cycle
system.cpu.commit.committed_per_cycle::4        44841      2.10%     93.38% # Number of insts commited each cycle
system.cpu.commit.committed_per_cycle::5        27688      1.30%     94.68% # Number of insts commited each cycle
system.cpu.commit.committed_per_cycle::6        17332      0.81%     95.49% # Number of insts commited each cycle
system.cpu.commit.committed_per_cycle::7        12457      0.58%     96.08% # Number of insts commited each cycle
system.cpu.commit.committed_per_cycle::8        83601      3.92%    100.00% # Number of insts commited each cycle
system.cpu.commit.committed_per_cycle::overflows            0      0.00%    100.00% # Number of insts commited each cycle
system.cpu.commit.committed_per_cycle::min_value            0                       # Number of insts commited each cycle
system.cpu.commit.committed_per_cycle::max_value            8                       # Number of insts commited each cycle
system.cpu.commit.committed_per_cycle::total      2131735                       # Number of insts commited each cycle
system.cpu.commit.committedInsts               938834                       # Number of instructions committed
system.cpu.commit.committedOps                1757383                       # Number of ops (including micro ops) committed
system.cpu.commit.swp_count                         0                       # Number of s/w prefetches committed
system.cpu.commit.refs                         447944                       # Number of memory references committed
system.cpu.commit.loads                        257784                       # Number of loads committed
system.cpu.commit.membars                        1114                       # Number of memory barriers committed
system.cpu.commit.branches                     188118                       # Number of branches committed
system.cpu.commit.vec_insts                         0                       # Number of committed Vector instructions.
system.cpu.commit.fp_insts                       2404                       # Number of committed floating point instructions.
system.cpu.commit.int_insts                   1739645                       # Number of committed integer instructions.
system.cpu.commit.function_calls                19882                       # Number of function calls committed.
system.cpu.commit.op_class_0::No_OpClass        14771      0.84%      0.84% # Class of committed instruction
system.cpu.commit.op_class_0::IntAlu          1289924     73.40%     74.24% # Class of committed instruction
system.cpu.commit.op_class_0::IntMult            1270      0.07%     74.31% # Class of committed instruction
system.cpu.commit.op_class_0::IntDiv             1652      0.09%     74.41% # Class of committed instruction
system.cpu.commit.op_class_0::FloatAdd           1822      0.10%     74.51% # Class of committed instruction
system.cpu.commit.op_class_0::FloatCmp              0      0.00%     74.51% # Class of committed instruction
system.cpu.commit.op_class_0::FloatCvt              0      0.00%     74.51% # Class of committed instruction
system.cpu.commit.op_class_0::FloatMult             0      0.00%     74.51% # Class of committed instruction
system.cpu.commit.op_class_0::FloatMultAcc            0      0.00%     74.51% # Class of committed instruction
system.cpu.commit.op_class_0::FloatDiv              0      0.00%     74.51% # Class of committed instruction
system.cpu.commit.op_class_0::FloatMisc             0      0.00%     74.51% # Class of committed instruction
system.cpu.commit.op_class_0::FloatSqrt             0      0.00%     74.51% # Class of committed instruction
system.cpu.commit.op_class_0::SimdAdd               0      0.00%     74.51% # Class of committed instruction
system.cpu.commit.op_class_0::SimdAddAcc            0      0.00%     74.51% # Class of committed instruction
system.cpu.commit.op_class_0::SimdAlu               0      0.00%     74.51% # Class of committed instruction
system.cpu.commit.op_class_0::SimdCmp               0      0.00%     74.51% # Class of committed instruction
system.cpu.commit.op_class_0::SimdCvt               0      0.00%     74.51% # Class of committed instruction
system.cpu.commit.op_class_0::SimdMisc              0      0.00%     74.51% # Class of committed instruction
system.cpu.commit.op_class_0::SimdMult              0      0.00%     74.51% # Class of committed instruction
system.cpu.commit.op_class_0::SimdMultAcc            0      0.00%     74.51% # Class of committed instruction
system.cpu.commit.op_class_0::SimdShift             0      0.00%     74.51% # Class of committed instruction
system.cpu.commit.op_class_0::SimdShiftAcc            0      0.00%     74.51% # Class of committed instruction
system.cpu.commit.op_class_0::SimdSqrt              0      0.00%     74.51% # Class of committed instruction
system.cpu.commit.op_class_0::SimdFloatAdd            0      0.00%     74.51% # Class of committed instruction
system.cpu.commit.op_class_0::SimdFloatAlu            0      0.00%     74.51% # Class of committed instruction
system.cpu.commit.op_class_0::SimdFloatCmp            0      0.00%     74.51% # Class of committed instruction
system.cpu.commit.op_class_0::SimdFloatCvt            0      0.00%     74.51% # Class of committed instruction
system.cpu.commit.op_class_0::SimdFloatDiv            0      0.00%     74.51% # Class of committed instruction
system.cpu.commit.op_class_0::SimdFloatMisc            0      0.00%     74.51% # Class of committed instruction
system.cpu.commit.op_class_0::SimdFloatMult            0      0.00%     74.51% # Class of committed instruction
system.cpu.commit.op_class_0::SimdFloatMultAcc            0      0.00%     74.51% # Class of committed instruction
system.cpu.commit.op_class_0::SimdFloatSqrt            0      0.00%     74.51% # Class of committed instruction
system.cpu.commit.op_class_0::MemRead          257330     14.64%     89.15% # Class of committed instruction
system.cpu.commit.op_class_0::MemWrite         190160     10.82%     99.97% # Class of committed instruction
system.cpu.commit.op_class_0::FloatMemRead          454      0.03%    100.00% # Class of committed instruction
system.cpu.commit.op_class_0::FloatMemWrite            0      0.00%    100.00% # Class of committed instruction
system.cpu.commit.op_class_0::IprAccess             0      0.00%    100.00% # Class of committed instruction
system.cpu.commit.op_class_0::InstPrefetch            0      0.00%    100.00% # Class of committed instruction
system.cpu.commit.op_class_0::total           1757383                       # Class of committed instruction
system.cpu.commit.bw_lim_events                 83601                       # number cycles where commit BW limit reached
system.cpu.rob.rob_reads                      5039708                       # The number of ROB reads
system.cpu.rob.rob_writes                     6202223                       # The number of ROB writes
system.cpu.timesIdled                            7317                       # Number of times that the entire CPU went into an idle state and unscheduled itself
system.cpu.idleCycles                          150370                       # Total number of cycles that the CPU has spent unscheduled due to idling
system.cpu.committedInsts                      938834                       # Number of Instructions Simulated
system.cpu.committedOps                       1757383                       # Number of Ops (including micro ops) Simulated
system.cpu.cpi                               2.648088                       # CPI: Cycles Per Instruction
system.cpu.cpi_total                         2.648088                       # CPI: Total CPI of All Threads
system.cpu.ipc                               0.377631                       # IPC: Instructions Per Cycle
system.cpu.ipc_total                         0.377631                       # IPC: Total IPC of All Threads
system.cpu.int_regfile_reads                  3617782                       # number of integer regfile reads
system.cpu.int_regfile_writes                 1916711                       # number of integer regfile writes
system.cpu.fp_regfile_reads                      6623                       # number of floating regfile reads
system.cpu.fp_regfile_writes                     3499                       # number of floating regfile writes
system.cpu.cc_regfile_reads                   1094930                       # number of cc regfile reads
system.cpu.cc_regfile_writes                   707666                       # number of cc regfile writes
system.cpu.misc_regfile_reads                 1110593                       # number of misc regfile reads
system.cpu.misc_regfile_writes                  13123                       # number of misc regfile writes
system.cpu.dcache.tags.pwrStateResidencyTicks::UNDEFINED 4803290366000                       # Cumulative time (in ticks) in various power states
system.cpu.dcache.tags.replacements             21161                       # number of replacements
system.cpu.dcache.tags.tagsinuse                 1024                       # Cycle average of tags in use
system.cpu.dcache.tags.total_refs              459413                       # Total number of references to valid blocks.
system.cpu.dcache.tags.sampled_refs             21161                       # Sample count of references to valid blocks.
system.cpu.dcache.tags.avg_refs             21.710363                       # Average number of references to valid blocks.
system.cpu.dcache.tags.warmup_cycle                 0                       # Cycle when the warmup percentage was hit.
system.cpu.dcache.tags.occ_blocks::cpu.data         1024                       # Average occupied blocks per requestor
system.cpu.dcache.tags.occ_percent::cpu.data            1                       # Average percentage of cache occupancy
system.cpu.dcache.tags.occ_percent::total            1                       # Average percentage of cache occupancy
system.cpu.dcache.tags.occ_task_id_blocks::1024         1024                       # Occupied blocks per task id
system.cpu.dcache.tags.age_task_id_blocks_1024::0           54                       # Occupied blocks per task id
system.cpu.dcache.tags.age_task_id_blocks_1024::1          726                       # Occupied blocks per task id
system.cpu.dcache.tags.age_task_id_blocks_1024::2          243                       # Occupied blocks per task id
system.cpu.dcache.tags.age_task_id_blocks_1024::3            1                       # Occupied blocks per task id
system.cpu.dcache.tags.occ_task_id_percent::1024            1                       # Percentage of cache occupancy per task id
system.cpu.dcache.tags.tag_accesses           1033603                       # Number of tag accesses
system.cpu.dcache.tags.data_accesses          1033603                       # Number of data accesses
system.cpu.dcache.pwrStateResidencyTicks::UNDEFINED 4803290366000                       # Cumulative time (in ticks) in various power states
system.cpu.dcache.ReadReq_hits::cpu.data       290024                       # number of ReadReq hits
system.cpu.dcache.ReadReq_hits::total          290024                       # number of ReadReq hits
system.cpu.dcache.WriteReq_hits::cpu.data       181117                       # number of WriteReq hits
system.cpu.dcache.WriteReq_hits::total         181117                       # number of WriteReq hits
system.cpu.dcache.SoftPFReq_hits::cpu.data          549                       # number of SoftPFReq hits
system.cpu.dcache.SoftPFReq_hits::total           549                       # number of SoftPFReq hits
system.cpu.dcache.demand_hits::cpu.data        471141                       # number of demand (read+write) hits
system.cpu.dcache.demand_hits::total           471141                       # number of demand (read+write) hits
system.cpu.dcache.overall_hits::cpu.data       471690                       # number of overall hits
system.cpu.dcache.overall_hits::total          471690                       # number of overall hits
system.cpu.dcache.ReadReq_misses::cpu.data        22599                       # number of ReadReq misses
system.cpu.dcache.ReadReq_misses::total         22599                       # number of ReadReq misses
system.cpu.dcache.WriteReq_misses::cpu.data         8986                       # number of WriteReq misses
system.cpu.dcache.WriteReq_misses::total         8986                       # number of WriteReq misses
system.cpu.dcache.SoftPFReq_misses::cpu.data         2946                       # number of SoftPFReq misses
system.cpu.dcache.SoftPFReq_misses::total         2946                       # number of SoftPFReq misses
system.cpu.dcache.demand_misses::cpu.data        31585                       # number of demand (read+write) misses
system.cpu.dcache.demand_misses::total          31585                       # number of demand (read+write) misses
system.cpu.dcache.overall_misses::cpu.data        34531                       # number of overall misses
system.cpu.dcache.overall_misses::total         34531                       # number of overall misses
system.cpu.dcache.ReadReq_miss_latency::cpu.data    293923000                       # number of ReadReq miss cycles
system.cpu.dcache.ReadReq_miss_latency::total    293923000                       # number of ReadReq miss cycles
system.cpu.dcache.WriteReq_miss_latency::cpu.data    159886995                       # number of WriteReq miss cycles
system.cpu.dcache.WriteReq_miss_latency::total    159886995                       # number of WriteReq miss cycles
[...]
system.l2cache.demand_mshr_misses::total         1535                       # number of demand (read+write) MSHR misses
system.l2cache.overall_mshr_misses::cpu.inst          531                       # number of overall MSHR misses
system.l2cache.overall_mshr_misses::cpu.data         1004                       # number of overall MSHR misses
system.l2cache.overall_mshr_misses::total         1535                       # number of overall MSHR misses
system.l2cache.ReadReq_mshr_uncacheable::cpu.data          347                       # number of ReadReq MSHR uncacheable
system.l2cache.ReadReq_mshr_uncacheable::total          347                       # number of ReadReq MSHR uncacheable
system.l2cache.WriteReq_mshr_uncacheable::cpu.data          129                       # number of WriteReq MSHR uncacheable
system.l2cache.WriteReq_mshr_uncacheable::total          129                       # number of WriteReq MSHR uncacheable
system.l2cache.overall_mshr_uncacheable_misses::cpu.data          476                       # number of overall MSHR uncacheable misses
system.l2cache.overall_mshr_uncacheable_misses::total          476                       # number of overall MSHR uncacheable misses
system.l2cache.UpgradeReq_mshr_miss_latency::cpu.data     12319000                       # number of UpgradeReq MSHR miss cycles
system.l2cache.UpgradeReq_mshr_miss_latency::total     12319000                       # number of UpgradeReq MSHR miss cycles
system.l2cache.ReadExReq_mshr_miss_latency::cpu.data     45674000                       # number of ReadExReq MSHR miss cycles
system.l2cache.ReadExReq_mshr_miss_latency::total     45674000                       # number of ReadExReq MSHR miss cycles
system.l2cache.ReadSharedReq_mshr_miss_latency::cpu.inst     42195000                       # number of ReadSharedReq MSHR miss cycles
system.l2cache.ReadSharedReq_mshr_miss_latency::cpu.data     27216000                       # number of ReadSharedReq MSHR miss cycles
system.l2cache.ReadSharedReq_mshr_miss_latency::total     69411000                       # number of ReadSharedReq MSHR miss cycles
system.l2cache.demand_mshr_miss_latency::cpu.inst     42195000                       # number of demand (read+write) MSHR miss cycles
system.l2cache.demand_mshr_miss_latency::cpu.data     72890000                       # number of demand (read+write) MSHR miss cycles
system.l2cache.demand_mshr_miss_latency::total    115085000                       # number of demand (read+write) MSHR miss cycles
system.l2cache.overall_mshr_miss_latency::cpu.inst     42195000                       # number of overall MSHR miss cycles
system.l2cache.overall_mshr_miss_latency::cpu.data     72890000                       # number of overall MSHR miss cycles
system.l2cache.overall_mshr_miss_latency::total    115085000                       # number of overall MSHR miss cycles
system.l2cache.ReadReq_mshr_uncacheable_latency::cpu.data     75819500                       # number of ReadReq MSHR uncacheable cycles
system.l2cache.ReadReq_mshr_uncacheable_latency::total     75819500                       # number of ReadReq MSHR uncacheable cycles
system.l2cache.overall_mshr_uncacheable_latency::cpu.data     75819500                       # number of overall MSHR uncacheable cycles
system.l2cache.overall_mshr_uncacheable_latency::total     75819500                       # number of overall MSHR uncacheable cycles
system.l2cache.UpgradeReq_mshr_miss_rate::cpu.data     0.950673                       # mshr miss rate for UpgradeReq accesses
system.l2cache.UpgradeReq_mshr_miss_rate::total     0.950673                       # mshr miss rate for UpgradeReq accesses
system.l2cache.ReadExReq_mshr_miss_rate::cpu.data     0.057426                       # mshr miss rate for ReadExReq accesses
system.l2cache.ReadExReq_mshr_miss_rate::total     0.057426                       # mshr miss rate for ReadExReq accesses
system.l2cache.ReadSharedReq_mshr_miss_rate::cpu.inst     0.016189                       # mshr miss rate for ReadSharedReq accesses
system.l2cache.ReadSharedReq_mshr_miss_rate::cpu.data     0.011676                       # mshr miss rate for ReadSharedReq accesses
system.l2cache.ReadSharedReq_mshr_miss_rate::total     0.014459                       # mshr miss rate for ReadSharedReq accesses
system.l2cache.demand_mshr_miss_rate::cpu.inst     0.016189                       # mshr miss rate for demand accesses
system.l2cache.demand_mshr_miss_rate::cpu.data     0.029773                       # mshr miss rate for demand accesses
system.l2cache.demand_mshr_miss_rate::total     0.023075                       # mshr miss rate for demand accesses
system.l2cache.overall_mshr_miss_rate::cpu.inst     0.016189                       # mshr miss rate for overall accesses
system.l2cache.overall_mshr_miss_rate::cpu.data     0.029773                       # mshr miss rate for overall accesses
system.l2cache.overall_mshr_miss_rate::total     0.023075                       # mshr miss rate for overall accesses
system.l2cache.UpgradeReq_avg_mshr_miss_latency::cpu.data 14527.122642                       # average UpgradeReq mshr miss latency
system.l2cache.UpgradeReq_avg_mshr_miss_latency::total 14527.122642                       # average UpgradeReq mshr miss latency
system.l2cache.ReadExReq_avg_mshr_miss_latency::cpu.data 59626.631854                       # average ReadExReq mshr miss latency
system.l2cache.ReadExReq_avg_mshr_miss_latency::total 59626.631854                       # average ReadExReq mshr miss latency
system.l2cache.ReadSharedReq_avg_mshr_miss_latency::cpu.inst 79463.276836                       # average ReadSharedReq mshr miss latency
system.l2cache.ReadSharedReq_avg_mshr_miss_latency::cpu.data 114352.941176                       # average ReadSharedReq mshr miss latency
system.l2cache.ReadSharedReq_avg_mshr_miss_latency::total 90261.378414                       # average ReadSharedReq mshr miss latency
system.l2cache.demand_avg_mshr_miss_latency::cpu.inst 79463.276836                       # average overall mshr miss latency
system.l2cache.demand_avg_mshr_miss_latency::cpu.data 72599.601594                       # average overall mshr miss latency
system.l2cache.demand_avg_mshr_miss_latency::total 74973.941368                       # average overall mshr miss latency
system.l2cache.overall_avg_mshr_miss_latency::cpu.inst 79463.276836                       # average overall mshr miss latency
system.l2cache.overall_avg_mshr_miss_latency::cpu.data 72599.601594                       # average overall mshr miss latency
system.l2cache.overall_avg_mshr_miss_latency::total 74973.941368                       # average overall mshr miss latency
system.l2cache.ReadReq_avg_mshr_uncacheable_latency::cpu.data       218500                       # average ReadReq mshr uncacheable latency
system.l2cache.ReadReq_avg_mshr_uncacheable_latency::total       218500                       # average ReadReq mshr uncacheable latency
system.l2cache.overall_avg_mshr_uncacheable_latency::cpu.data 159284.663866                       # average overall mshr uncacheable latency
system.l2cache.overall_avg_mshr_uncacheable_latency::total 159284.663866                       # average overall mshr uncacheable latency
system.membus.snoop_filter.tot_requests         36743                       # Total number of requests made to the snoop filter.
system.membus.snoop_filter.hit_single_requests        35336                       # Number of requests hitting in the snoop filter with a single holder of the requested data.
system.membus.snoop_filter.hit_multi_requests            0                       # Number of requests hitting in the snoop filter with multiple (>1) holders of the requested data.
system.membus.snoop_filter.tot_snoops               0                       # Total number of snoops made to the snoop filter.
system.membus.snoop_filter.hit_single_snoops            0                       # Number of snoops hitting in the snoop filter with a single holder of the requested data.
system.membus.snoop_filter.hit_multi_snoops            0                       # Number of snoops hitting in the snoop filter with multiple (>1) holders of the requested data.
system.membus.pwrStateResidencyTicks::UNDEFINED 4803925021500                       # Cumulative time (in ticks) in various power states
system.membus.trans_dist::ReadReq               36741                       # Transaction distribution
system.membus.trans_dist::ReadResp              37510                       # Transaction distribution
system.membus.trans_dist::WriteReq                129                       # Transaction distribution
system.membus.trans_dist::WriteResp               129                       # Transaction distribution
system.membus.trans_dist::WritebackDirty          646                       # Transaction distribution
system.membus.trans_dist::CleanEvict              647                       # Transaction distribution
system.membus.trans_dist::UpgradeReq              976                       # Transaction distribution
system.membus.trans_dist::ReadExReq               638                       # Transaction distribution
system.membus.trans_dist::ReadExResp              638                       # Transaction distribution
system.membus.trans_dist::ReadSharedReq           769                       # Transaction distribution
system.membus.trans_dist::MessageReq              117                       # Transaction distribution
system.membus.trans_dist::MessageResp             117                       # Transaction distribution
system.membus.pkt_count_system.apicbridge.master::system.cpu.interrupts.int_slave          234                       # Packet count per connected master and slave (bytes)
system.membus.pkt_count_system.apicbridge.master::total          234                       # Packet count per connected master and slave (bytes)
system.membus.pkt_count_system.l2cache.mem_side::system.bridge.slave          936                       # Packet count per connected master and slave (bytes)
system.membus.pkt_count_system.l2cache.mem_side::system.mem_cntrl.port         5083                       # Packet count per connected master and slave (bytes)
system.membus.pkt_count_system.l2cache.mem_side::system.cpu.interrupts.pio           16                       # Packet count per connected master and slave (bytes)
system.membus.pkt_count_system.l2cache.mem_side::total         6035                       # Packet count per connected master and slave (bytes)
system.membus.pkt_count_system.cpu.itb.walker.port::system.mem_cntrl.port         8229                       # Packet count per connected master and slave (bytes)
system.membus.pkt_count_system.cpu.itb.walker.port::total         8229                       # Packet count per connected master and slave (bytes)
system.membus.pkt_count_system.cpu.dtb.walker.port::system.mem_cntrl.port        31540                       # Packet count per connected master and slave (bytes)
system.membus.pkt_count_system.cpu.dtb.walker.port::total        31540                       # Packet count per connected master and slave (bytes)
system.membus.pkt_count::total                  46038                       # Packet count per connected master and slave (bytes)
system.membus.pkt_size_system.apicbridge.master::system.cpu.interrupts.int_slave          468                       # Cumulative packet size per connected master and slave (bytes)
system.membus.pkt_size_system.apicbridge.master::total          468                       # Cumulative packet size per connected master and slave (bytes)
system.membus.pkt_size_system.l2cache.mem_side::system.bridge.slave          468                       # Cumulative packet size per connected master and slave (bytes)
system.membus.pkt_size_system.l2cache.mem_side::system.mem_cntrl.port       131392                       # Cumulative packet size per connected master and slave (bytes)
system.membus.pkt_size_system.l2cache.mem_side::system.cpu.interrupts.pio           32                       # Cumulative packet size per connected master and slave (bytes)
system.membus.pkt_size_system.l2cache.mem_side::total       131892                       # Cumulative packet size per connected master and slave (bytes)
system.membus.pkt_size_system.cpu.itb.walker.port::system.mem_cntrl.port          456                       # Cumulative packet size per connected master and slave (bytes)
system.membus.pkt_size_system.cpu.itb.walker.port::total          456                       # Cumulative packet size per connected master and slave (bytes)
system.membus.pkt_size_system.cpu.dtb.walker.port::system.mem_cntrl.port        26544                       # Cumulative packet size per connected master and slave (bytes)
system.membus.pkt_size_system.cpu.dtb.walker.port::total        26544                       # Cumulative packet size per connected master and slave (bytes)
system.membus.pkt_size::total                  159360                       # Cumulative packet size per connected master and slave (bytes)
system.membus.snoops                            33019                       # Total snoops (count)
system.membus.snoopTraffic                     264152                       # Total snoop traffic (bytes)
system.membus.snoop_fanout::samples             39370                       # Request fanout histogram
system.membus.snoop_fanout::mean             0.839903                       # Request fanout histogram
system.membus.snoop_fanout::stdev            0.366700                       # Request fanout histogram
system.membus.snoop_fanout::underflows              0      0.00%      0.00% # Request fanout histogram
system.membus.snoop_fanout::0                    6303     16.01%     16.01% # Request fanout histogram
system.membus.snoop_fanout::1                   33067     83.99%    100.00% # Request fanout histogram
system.membus.snoop_fanout::2                       0      0.00%    100.00% # Request fanout histogram
system.membus.snoop_fanout::overflows               0      0.00%    100.00% # Request fanout histogram
system.membus.snoop_fanout::min_value               0                       # Request fanout histogram
system.membus.snoop_fanout::max_value               1                       # Request fanout histogram
system.membus.snoop_fanout::total               39370                       # Request fanout histogram
system.membus.reqLayer0.occupancy              294500                       # Layer occupancy (ticks)
system.membus.reqLayer0.utilization               0.0                       # Layer utilization (%)
system.membus.reqLayer1.occupancy            21327499                       # Layer occupancy (ticks)
system.membus.reqLayer1.utilization               1.1                       # Layer utilization (%)
system.membus.reqLayer2.occupancy                8000                       # Layer occupancy (ticks)
system.membus.reqLayer2.utilization               0.0                       # Layer utilization (%)
system.membus.reqLayer3.occupancy              117000                       # Layer occupancy (ticks)
system.membus.reqLayer3.utilization               0.0                       # Layer utilization (%)
system.membus.respLayer1.occupancy              58500                       # Layer occupancy (ticks)
system.membus.respLayer1.utilization              0.0                       # Layer utilization (%)
system.membus.respLayer3.occupancy            4189249                       # Layer occupancy (ticks)
system.membus.respLayer3.utilization              0.2                       # Layer utilization (%)
system.membus.respLayer4.occupancy            8335191                       # Layer occupancy (ticks)
system.membus.respLayer4.utilization              0.4                       # Layer utilization (%)
system.membus.respLayer5.occupancy           28951419                       # Layer occupancy (ticks)
system.membus.respLayer5.utilization              1.5                       # Layer utilization (%)
system.membus.badaddr_responder.pwrStateResidencyTicks::UNDEFINED 4803925021500                       # Cumulative time (in ticks) in various power states
system.pc.behind_pci.pwrStateResidencyTicks::UNDEFINED 4803925021500                       # Cumulative time (in ticks) in various power states
system.pc.com_1.pwrStateResidencyTicks::UNDEFINED 4803925021500                       # Cumulative time (in ticks) in various power states
system.pc.fake_com_2.pwrStateResidencyTicks::UNDEFINED 4803925021500                       # Cumulative time (in ticks) in various power states
system.pc.fake_com_3.pwrStateResidencyTicks::UNDEFINED 4803925021500                       # Cumulative time (in ticks) in various power states
system.pc.fake_com_4.pwrStateResidencyTicks::UNDEFINED 4803925021500                       # Cumulative time (in ticks) in various power states
system.pc.fake_floppy.pwrStateResidencyTicks::UNDEFINED 4803925021500                       # Cumulative time (in ticks) in various power states
system.pc.i_dont_exist1.pwrStateResidencyTicks::UNDEFINED 4803925021500                       # Cumulative time (in ticks) in various power states
system.pc.i_dont_exist2.pwrStateResidencyTicks::UNDEFINED 4803925021500                       # Cumulative time (in ticks) in various power states
system.pc.pci_host.pwrStateResidencyTicks::UNDEFINED 4803925021500                       # Cumulative time (in ticks) in various power states
system.pc.south_bridge.cmos.pwrStateResidencyTicks::UNDEFINED 4803925021500                       # Cumulative time (in ticks) in various power states
system.pc.south_bridge.dma1.pwrStateResidencyTicks::UNDEFINED 4803925021500                       # Cumulative time (in ticks) in various power states
system.pc.south_bridge.pic2.pwrStateResidencyTicks::UNDEFINED 4803925021500                       # Cumulative time (in ticks) in various power states
system.pc.south_bridge.pic1.pwrStateResidencyTicks::UNDEFINED 4803925021500                       # Cumulative time (in ticks) in various power states
system.pc.south_bridge.io_apic.pwrStateResidencyTicks::UNDEFINED 4803925021500                       # Cumulative time (in ticks) in various power states
system.pc.south_bridge.keyboard.pwrStateResidencyTicks::UNDEFINED 4803925021500                       # Cumulative time (in ticks) in various power states
system.pc.south_bridge.pit.pwrStateResidencyTicks::UNDEFINED 4803925021500                       # Cumulative time (in ticks) in various power states
system.pc.south_bridge.speaker.pwrStateResidencyTicks::UNDEFINED 4803925021500                       # Cumulative time (in ticks) in various power states
system.pc.south_bridge.ide.disks.dma_read_full_pages            0                       # Number of full page size DMA reads (not PRD).
system.pc.south_bridge.ide.disks.dma_read_bytes            0                       # Number of bytes transfered via DMA reads (not PRD).
system.pc.south_bridge.ide.disks.dma_read_txs            0                       # Number of DMA read transactions (not PRD).
system.pc.south_bridge.ide.disks.dma_write_full_pages            0                       # Number of full page size DMA writes.
system.pc.south_bridge.ide.disks.dma_write_bytes            0                       # Number of bytes transfered via DMA writes.
system.pc.south_bridge.ide.disks.dma_write_txs            0                       # Number of DMA write transactions.
system.pc.south_bridge.ide.pwrStateResidencyTicks::UNDEFINED 4803925021500                       # Cumulative time (in ticks) in various power states
system.cpu.kern.inst.arm                            0                       # number of arm instructions executed
system.cpu.kern.inst.quiesce                        0                       # number of quiesce instructions executed

---------- End Simulation Statistics   ----------
