
---------- Begin Simulation Statistics ----------
sim_seconds                                  0.001222                       # Number of seconds simulated
sim_ticks                                  1221900000                       # Number of ticks simulated
final_tick                               4783208949500                       # Number of ticks from beginning of simulation (restored from checkpoints and never reset)
sim_freq                                 1000000000000                       # Frequency of simulated ticks
host_inst_rate                              140074852                       # Simulator instruction rate (inst/s)
host_op_rate                                327347444                       # Simulator op (including micro ops) rate (op/s)
host_tick_rate                              115280361                       # Simulator tick rate (ticks/s)
host_mem_usage                                1514108                       # Number of bytes of host memory used
host_seconds                                    10.60                       # Real time elapsed on the host
sim_insts                                  1484703337                       # Number of instructions simulated
sim_ops                                    3469675824                       # Number of ops (including micro ops) simulated
system.clk_domain.voltage_domain.voltage            1                       # Voltage in Volts
system.clk_domain.clock                           500                       # Clock period in ticks
system.mem_cntrl.pwrStateResidencyTicks::UNDEFINED 4783208949500                       # Cumulative time (in ticks) in various power states
system.mem_cntrl.bytes_read::cpu.dtb.walker        16960                       # Number of bytes read from this memory
system.mem_cntrl.bytes_read::cpu.itb.walker          376                       # Number of bytes read from this memory
system.mem_cntrl.bytes_read::cpu.inst           30720                       # Number of bytes read from this memory
system.mem_cntrl.bytes_read::cpu.data           38336                       # Number of bytes read from this memory
system.mem_cntrl.bytes_read::total              86392                       # Number of bytes read from this memory
system.mem_cntrl.bytes_inst_read::cpu.inst        30720                       # Number of instructions bytes read from this memory
system.mem_cntrl.bytes_inst_read::total         30720                       # Number of instructions bytes read from this memory
system.mem_cntrl.bytes_written::writebacks        25792                       # Number of bytes written to this memory
system.mem_cntrl.bytes_written::total           25792                       # Number of bytes written to this memory
system.mem_cntrl.num_reads::cpu.dtb.walker         2120                       # Number of read requests responded to by this memory
system.mem_cntrl.num_reads::cpu.itb.walker           47                       # Number of read requests responded to by this memory
system.mem_cntrl.num_reads::cpu.inst              480                       # Number of read requests responded to by this memory
system.mem_cntrl.num_reads::cpu.data              599                       # Number of read requests responded to by this memory
system.mem_cntrl.num_reads::total                3246                       # Number of read requests responded to by this memory
system.mem_cntrl.num_writes::writebacks           403                       # Number of write requests responded to by this memory
system.mem_cntrl.num_writes::total                403                       # Number of write requests responded to by this memory
system.mem_cntrl.bw_read::cpu.dtb.walker     13880023                       # Total read bandwidth from this memory (bytes/s)
system.mem_cntrl.bw_read::cpu.itb.walker       307717                       # Total read bandwidth from this memory (bytes/s)
system.mem_cntrl.bw_read::cpu.inst           25141174                       # Total read bandwidth from this memory (bytes/s)
system.mem_cntrl.bw_read::cpu.data           31374090                       # Total read bandwidth from this memory (bytes/s)
system.mem_cntrl.bw_read::total              70703004                       # Total read bandwidth from this memory (bytes/s)
system.mem_cntrl.bw_inst_read::cpu.inst      25141174                       # Instruction read bandwidth from this memory (bytes/s)
system.mem_cntrl.bw_inst_read::total         25141174                       # Instruction read bandwidth from this memory (bytes/s)
system.mem_cntrl.bw_write::writebacks        21108110                       # Write bandwidth from this memory (bytes/s)
system.mem_cntrl.bw_write::total             21108110                       # Write bandwidth from this memory (bytes/s)
system.mem_cntrl.bw_total::writebacks        21108110                       # Total bandwidth to/from this memory (bytes/s)
system.mem_cntrl.bw_total::cpu.dtb.walker     13880023                       # Total bandwidth to/from this memory (bytes/s)
system.mem_cntrl.bw_total::cpu.itb.walker       307717                       # Total bandwidth to/from this memory (bytes/s)
system.mem_cntrl.bw_total::cpu.inst          25141174                       # Total bandwidth to/from this memory (bytes/s)
system.mem_cntrl.bw_total::cpu.data          31374090                       # Total bandwidth to/from this memory (bytes/s)
system.mem_cntrl.bw_total::total             91811114                       # Total bandwidth to/from this memory (bytes/s)
system.mem_cntrl.readReqs                        3246                       # Number of read requests accepted
system.mem_cntrl.writeReqs                        403                       # Number of write requests accepted
system.mem_cntrl.readBursts                      3246                       # Number of DRAM read bursts, including those serviced by the write queue
system.mem_cntrl.writeBursts                      403                       # Number of DRAM write bursts, including those merged in the write queue
system.mem_cntrl.bytesReadDRAM                 207488                       # Total number of bytes read from DRAM
system.mem_cntrl.bytesReadWrQ                     256                       # Total number of bytes read from write queue
system.mem_cntrl.bytesWritten                   26048                       # Total number of bytes written to DRAM
system.mem_cntrl.bytesReadSys                   86392                       # Total read bytes from the system interface side
system.mem_cntrl.bytesWrittenSys                25792                       # Total written bytes from the system interface side
system.mem_cntrl.servicedByWrQ                      4                       # Number of DRAM read bursts serviced by the write queue
system.mem_cntrl.mergedWrBursts                     0                       # Number of DRAM write bursts merged with an existing one
system.mem_cntrl.neitherReadNorWriteReqs            0                       # Number of requests that are neither read nor write
system.mem_cntrl.perBankRdBursts::0               102                       # Per bank write bursts
system.mem_cntrl.perBankRdBursts::1                51                       # Per bank write bursts
system.mem_cntrl.perBankRdBursts::2                21                       # Per bank write bursts
system.mem_cntrl.perBankRdBursts::3                16                       # Per bank write bursts
system.mem_cntrl.perBankRdBursts::4               291                       # Per bank write bursts
system.mem_cntrl.perBankRdBursts::5               287                       # Per bank write bursts
system.mem_cntrl.perBankRdBursts::6               869                       # Per bank write bursts
system.mem_cntrl.perBankRdBursts::7               202                       # Per bank write bursts
system.mem_cntrl.perBankRdBursts::8               651                       # Per bank write bursts
system.mem_cntrl.perBankRdBursts::9               108                       # Per bank write bursts
system.mem_cntrl.perBankRdBursts::10              150                       # Per bank write bursts
system.mem_cntrl.perBankRdBursts::11              122                       # Per bank write bursts
system.mem_cntrl.perBankRdBursts::12               97                       # Per bank write bursts
system.mem_cntrl.perBankRdBursts::13               78                       # Per bank write bursts
system.mem_cntrl.perBankRdBursts::14              124                       # Per bank write bursts
system.mem_cntrl.perBankRdBursts::15               73                       # Per bank write bursts
system.mem_cntrl.perBankWrBursts::0                35                       # Per bank write bursts
system.mem_cntrl.perBankWrBursts::1                40                       # Per bank write bursts
system.mem_cntrl.perBankWrBursts::2                 6                       # Per bank write bursts
system.mem_cntrl.perBankWrBursts::3                14                       # Per bank write bursts
system.mem_cntrl.perBankWrBursts::4                 6                       # Per bank write bursts
system.mem_cntrl.perBankWrBursts::5                34                       # Per bank write bursts
system.mem_cntrl.perBankWrBursts::6                11                       # Per bank write bursts
system.mem_cntrl.perBankWrBursts::7                28                       # Per bank write bursts
system.mem_cntrl.perBankWrBursts::8                 8                       # Per bank write bursts
system.mem_cntrl.perBankWrBursts::9                59                       # Per bank write bursts
system.mem_cntrl.perBankWrBursts::10               32                       # Per bank write bursts
system.mem_cntrl.perBankWrBursts::11               30                       # Per bank write bursts
system.mem_cntrl.perBankWrBursts::12               24                       # Per bank write bursts
system.mem_cntrl.perBankWrBursts::13               33                       # Per bank write bursts
system.mem_cntrl.perBankWrBursts::14               27                       # Per bank write bursts
system.mem_cntrl.perBankWrBursts::15               20                       # Per bank write bursts
system.mem_cntrl.numRdRetry                         0                       # Number of times read queue was full causing retry
system.mem_cntrl.numWrRetry                         0                       # Number of times write queue was full causing retry
system.mem_cntrl.totGap                    1218449500                       # Total gap between requests
system.mem_cntrl.readPktSize::0                     0                       # Read request sizes (log2)
system.mem_cntrl.readPktSize::1                     0                       # Read request sizes (log2)
system.mem_cntrl.readPktSize::2                     0                       # Read request sizes (log2)
system.mem_cntrl.readPktSize::3                  2167                       # Read request sizes (log2)
system.mem_cntrl.readPktSize::4                     0                       # Read request sizes (log2)
system.mem_cntrl.readPktSize::5                     0                       # Read request sizes (log2)
system.mem_cntrl.readPktSize::6                  1079                       # Read request sizes (log2)
system.mem_cntrl.writePktSize::0                    0                       # Write request sizes (log2)
system.mem_cntrl.writePktSize::1                    0                       # Write request sizes (log2)
system.mem_cntrl.writePktSize::2                    0                       # Write request sizes (log2)
system.mem_cntrl.writePktSize::3                    0                       # Write request sizes (log2)
system.mem_cntrl.writePktSize::4                    0                       # Write request sizes (log2)
system.mem_cntrl.writePktSize::5                    0                       # Write request sizes (log2)
system.mem_cntrl.writePktSize::6                  403                       # Write request sizes (log2)
system.mem_cntrl.rdQLenPdf::0                    3036                       # What read queue length does an incoming req see
system.mem_cntrl.rdQLenPdf::1                     184                       # What read queue length does an incoming req see
system.mem_cntrl.rdQLenPdf::2                      19                       # What read queue length does an incoming req see
system.mem_cntrl.rdQLenPdf::3                       3                       # What read queue length does an incoming req see
system.mem_cntrl.rdQLenPdf::4                       0                       # What read queue length does an incoming req see
system.mem_cntrl.rdQLenPdf::5                       0                       # What read queue length does an incoming req see
system.mem_cntrl.rdQLenPdf::6                       0                       # What read queue length does an incoming req see
system.mem_cntrl.rdQLenPdf::7                       0                       # What read queue length does an incoming req see
system.mem_cntrl.rdQLenPdf::8                       0                       # What read queue length does an incoming req see
system.mem_cntrl.rdQLenPdf::9                       0                       # What read queue length does an incoming req see
system.mem_cntrl.rdQLenPdf::10                      0                       # What read queue length does an incoming req see
system.mem_cntrl.rdQLenPdf::11                      0                       # What read queue length does an incoming req see
system.mem_cntrl.rdQLenPdf::12                      0                       # What read queue length does an incoming req see
system.mem_cntrl.rdQLenPdf::13                      0                       # What read queue length does an incoming req see
system.mem_cntrl.rdQLenPdf::14                      0                       # What read queue length does an incoming req see
system.mem_cntrl.rdQLenPdf::15                      0                       # What read queue length does an incoming req see
system.mem_cntrl.rdQLenPdf::16                      0                       # What read queue length does an incoming req see
system.mem_cntrl.rdQLenPdf::17                      0                       # What read queue length does an incoming req see
system.mem_cntrl.rdQLenPdf::18                      0                       # What read queue length does an incoming req see
system.mem_cntrl.rdQLenPdf::19                      0                       # What read queue length does an incoming req see
system.mem_cntrl.rdQLenPdf::20                      0                       # What read queue length does an incoming req see
system.mem_cntrl.rdQLenPdf::21                      0                       # What read queue length does an incoming req see
system.mem_cntrl.rdQLenPdf::22                      0                       # What read queue length does an incoming req see
system.mem_cntrl.rdQLenPdf::23                      0                       # What read queue length does an incoming req see
system.mem_cntrl.rdQLenPdf::24                      0                       # What read queue length does an incoming req see
system.mem_cntrl.rdQLenPdf::25                      0                       # What read queue length does an incoming req see
system.mem_cntrl.rdQLenPdf::26                      0                       # What read queue length does an incoming req see
system.mem_cntrl.rdQLenPdf::27                      0                       # What read queue length does an incoming req see
system.mem_cntrl.rdQLenPdf::28                      0                       # What read queue length does an incoming req see
system.mem_cntrl.rdQLenPdf::29                      0                       # What read queue length does an incoming req see
system.mem_cntrl.rdQLenPdf::30                      0                       # What read queue length does an incoming req see
system.mem_cntrl.rdQLenPdf::31                      0                       # What read queue length does an incoming req see
system.mem_cntrl.wrQLenPdf::0                       0                       # What write queue length does an incoming req see
system.mem_cntrl.wrQLenPdf::1                       0                       # What write queue length does an incoming req see
system.mem_cntrl.wrQLenPdf::2                       0                       # What write queue length does an incoming req see
system.mem_cntrl.wrQLenPdf::3                       0                       # What write queue length does an incoming req see
system.mem_cntrl.wrQLenPdf::4                       0                       # What write queue length does an incoming req see
system.mem_cntrl.wrQLenPdf::5                       0                       # What write queue length does an incoming req see
system.mem_cntrl.wrQLenPdf::6                       0                       # What write queue length does an incoming req see
system.mem_cntrl.wrQLenPdf::7                       0                       # What write queue length does an incoming req see
system.mem_cntrl.wrQLenPdf::8                       0                       # What write queue length does an incoming req see
system.mem_cntrl.wrQLenPdf::9                       0                       # What write queue length does an incoming req see
system.mem_cntrl.wrQLenPdf::10                      0                       # What write queue length does an incoming req see
system.mem_cntrl.wrQLenPdf::11                      0                       # What write queue length does an incoming req see
system.mem_cntrl.wrQLenPdf::12                      0                       # What write queue length does an incoming req see
system.mem_cntrl.wrQLenPdf::13                      0                       # What write queue length does an incoming req see
system.mem_cntrl.wrQLenPdf::14                      0                       # What write queue length does an incoming req see
system.mem_cntrl.wrQLenPdf::15                      3                       # What write queue length does an incoming req see
system.mem_cntrl.wrQLenPdf::16                      4                       # What write queue length does an incoming req see
system.mem_cntrl.wrQLenPdf::17                     23                       # What write queue length does an incoming req see
system.mem_cntrl.wrQLenPdf::18                     25                       # What write queue length does an incoming req see
system.mem_cntrl.wrQLenPdf::19                     25                       # What write queue length does an incoming req see
system.mem_cntrl.wrQLenPdf::20                     25                       # What write queue length does an incoming req see
system.mem_cntrl.wrQLenPdf::21                     25                       # What write queue length does an incoming req see
system.mem_cntrl.wrQLenPdf::22                     24                       # What write queue length does an incoming req see
system.mem_cntrl.wrQLenPdf::23                     24                       # What write queue length does an incoming req see
system.mem_cntrl.wrQLenPdf::24                     24                       # What write queue length does an incoming req see
system.mem_cntrl.wrQLenPdf::25                     24                       # What write queue length does an incoming req see
system.mem_cntrl.wrQLenPdf::26                     25                       # What write queue length does an incoming req see
system.mem_cntrl.wrQLenPdf::27                     25                       # What write queue length does an incoming req see
system.mem_cntrl.wrQLenPdf::28                     25                       # What write queue length does an incoming req see
system.mem_cntrl.wrQLenPdf::29                     26                       # What write queue length does an incoming req see
system.mem_cntrl.wrQLenPdf::30                     26                       # What write queue length does an incoming req see
system.mem_cntrl.wrQLenPdf::31                     25                       # What write queue length does an incoming req see
system.mem_cntrl.wrQLenPdf::32                     25                       # What write queue length does an incoming req see
system.mem_cntrl.wrQLenPdf::33                      0                       # What write queue length does an incoming req see
system.mem_cntrl.wrQLenPdf::34                      0                       # What write queue length does an incoming req see
system.mem_cntrl.wrQLenPdf::35                      0                       # What write queue length does an incoming req see
system.mem_cntrl.wrQLenPdf::36                      0                       # What write queue length does an incoming req see
system.mem_cntrl.wrQLenPdf::37                      0                       # What write queue length does an incoming req see
system.mem_cntrl.wrQLenPdf::38                      0                       # What write queue length does an incoming req see
system.mem_cntrl.wrQLenPdf::39                      0                       # What write queue length does an incoming req see
system.mem_cntrl.wrQLenPdf::40                      0                       # What write queue length does an incoming req see
system.mem_cntrl.wrQLenPdf::41                      0                       # What write queue length does an incoming req see
system.mem_cntrl.wrQLenPdf::42                      0                       # What write queue length does an incoming req see
system.mem_cntrl.wrQLenPdf::43                      0                       # What write queue length does an incoming req see
system.mem_cntrl.wrQLenPdf::44                      0                       # What write queue length does an incoming req see
system.mem_cntrl.wrQLenPdf::45                      0                       # What write queue length does an incoming req see
system.mem_cntrl.wrQLenPdf::46                      0                       # What write queue length does an incoming req see
system.mem_cntrl.wrQLenPdf::47                      0                       # What write queue length does an incoming req see
system.mem_cntrl.wrQLenPdf::48                      0                       # What write queue length does an incoming req see
system.mem_cntrl.wrQLenPdf::49                      0                       # What write queue length does an incoming req see
system.mem_cntrl.wrQLenPdf::50                      0                       # What write queue length does an incoming req see
system.mem_cntrl.wrQLenPdf::51                      0                       # What write queue length does an incoming req see
system.mem_cntrl.wrQLenPdf::52                      0                       # What write queue length does an incoming req see
system.mem_cntrl.wrQLenPdf::53                      0                       # What write queue length does an incoming req see
system.mem_cntrl.wrQLenPdf::54                      0                       # What write queue length does an incoming req see
system.mem_cntrl.wrQLenPdf::55                      0                       # What write queue length does an incoming req see
system.mem_cntrl.wrQLenPdf::56                      0                       # What write queue length does an incoming req see
system.mem_cntrl.wrQLenPdf::57                      0                       # What write queue length does an incoming req see
system.mem_cntrl.wrQLenPdf::58                      0                       # What write queue length does an incoming req see
system.mem_cntrl.wrQLenPdf::59                      0                       # What write queue length does an incoming req see
system.mem_cntrl.wrQLenPdf::60                      0                       # What write queue length does an incoming req see
system.mem_cntrl.wrQLenPdf::61                      0                       # What write queue length does an incoming req see
system.mem_cntrl.wrQLenPdf::62                      0                       # What write queue length does an incoming req see
system.mem_cntrl.wrQLenPdf::63                      0                       # What write queue length does an incoming req see
system.mem_cntrl.bytesPerActivate::samples         1072                       # Bytes accessed per row activation
system.mem_cntrl.bytesPerActivate::mean    218.507463                       # Bytes accessed per row activation
system.mem_cntrl.bytesPerActivate::gmean   135.641429                       # Bytes accessed per row activation
system.mem_cntrl.bytesPerActivate::stdev   261.952127                       # Bytes accessed per row activation
system.mem_cntrl.bytesPerActivate::0-127          510     47.57%     47.57% # Bytes accessed per row activation
system.mem_cntrl.bytesPerActivate::128-255          284     26.49%     74.07% # Bytes accessed per row activation
system.mem_cntrl.bytesPerActivate::256-383           97      9.05%     83.12% # Bytes accessed per row activation
system.mem_cntrl.bytesPerActivate::384-511           49      4.57%     87.69% # Bytes accessed per row activation
system.mem_cntrl.bytesPerActivate::512-639           23      2.15%     89.83% # Bytes accessed per row activation
system.mem_cntrl.bytesPerActivate::640-767           15      1.40%     91.23% # Bytes accessed per row activation
system.mem_cntrl.bytesPerActivate::768-895           19      1.77%     93.00% # Bytes accessed per row activation
system.mem_cntrl.bytesPerActivate::896-1023           21      1.96%     94.96% # Bytes accessed per row activation
system.mem_cntrl.bytesPerActivate::1024-1151           54      5.04%    100.00% # Bytes accessed per row activation
system.mem_cntrl.bytesPerActivate::total         1072                       # Bytes accessed per row activation
system.mem_cntrl.rdPerTurnAround::samples           25                       # Reads before turning the bus around for writes
system.mem_cntrl.rdPerTurnAround::mean     110.680000                       # Reads before turning the bus around for writes
system.mem_cntrl.rdPerTurnAround::gmean     85.592349                       # Reads before turning the bus around for writes
system.mem_cntrl.rdPerTurnAround::stdev     87.528910                       # Reads before turning the bus around for writes
system.mem_cntrl.rdPerTurnAround::16-31             1      4.00%      4.00% # Reads before turning the bus around for writes
system.mem_cntrl.rdPerTurnAround::32-47             3     12.00%     16.00% # Reads before turning the bus around for writes
system.mem_cntrl.rdPerTurnAround::48-63             4     16.00%     32.00% # Reads before turning the bus around for writes
system.mem_cntrl.rdPerTurnAround::64-79             7     28.00%     60.00% # Reads before turning the bus around for writes
system.mem_cntrl.rdPerTurnAround::96-111            2      8.00%     68.00% # Reads before turning the bus around for writes
system.mem_cntrl.rdPerTurnAround::112-127            1      4.00%     72.00% # Reads before turning the bus around for writes
system.mem_cntrl.rdPerTurnAround::128-143            1      4.00%     76.00% # Reads before turning the bus around for writes
system.mem_cntrl.rdPerTurnAround::160-175            1      4.00%     80.00% # Reads before turning the bus around for writes
system.mem_cntrl.rdPerTurnAround::176-191            1      4.00%     84.00% # Reads before turning the bus around for writes
system.mem_cntrl.rdPerTurnAround::240-255            2      8.00%     92.00% # Reads before turning the bus around for writes
system.mem_cntrl.rdPerTurnAround::272-287            1      4.00%     96.00% # Reads before turning the bus around for writes
system.mem_cntrl.rdPerTurnAround::352-367            1      4.00%    100.00% # Reads before turning the bus around for writes
system.mem_cntrl.rdPerTurnAround::total            25                       # Reads before turning the bus around for writes
system.mem_cntrl.wrPerTurnAround::samples           25                       # Writes before turning the bus around for reads
system.mem_cntrl.wrPerTurnAround::mean      16.280000                       # Writes before turning the bus around for reads
system.mem_cntrl.wrPerTurnAround::gmean     16.267149                       # Writes before turning the bus around for reads
system.mem_cntrl.wrPerTurnAround::stdev      0.678233                       # Writes before turning the bus around for reads
system.mem_cntrl.wrPerTurnAround::16               21     84.00%     84.00% # Writes before turning the bus around for reads
system.mem_cntrl.wrPerTurnAround::17                1      4.00%     88.00% # Writes before turning the bus around for reads
system.mem_cntrl.wrPerTurnAround::18                3     12.00%    100.00% # Writes before turning the bus around for reads
system.mem_cntrl.wrPerTurnAround::total            25                       # Writes before turning the bus around for reads
system.mem_cntrl.totQLat                     64663750                       # Total ticks spent queuing
system.mem_cntrl.totMemAccLat               125451250                       # Total ticks spent from burst creation until serviced by the DRAM
system.mem_cntrl.totBusLat                   16210000                       # Total ticks spent in databus transfers
system.mem_cntrl.avgQLat                     19945.64                       # Average queueing delay per DRAM burst
system.mem_cntrl.avgBusLat                    5000.00                       # Average bus latency per DRAM burst
system.mem_cntrl.avgMemAccLat                38695.64                       # Average memory access latency per DRAM burst
system.mem_cntrl.avgRdBW                       169.81                       # Average DRAM read bandwidth in MiByte/s
system.mem_cntrl.avgWrBW                        21.32                       # Average achieved write bandwidth in MiByte/s
system.mem_cntrl.avgRdBWSys                     70.70                       # Average system read bandwidth in MiByte/s
system.mem_cntrl.avgWrBWSys                     21.11                       # Average system write bandwidth in MiByte/s
system.mem_cntrl.peakBW                      12800.00                       # Theoretical peak bandwidth in MiByte/s
system.mem_cntrl.busUtil                         1.49                       # Data bus utilization in percentage
system.mem_cntrl.busUtilRead                     1.33                       # Data bus utilization in percentage for reads
system.mem_cntrl.busUtilWrite                    0.17                       # Data bus utilization in percentage for writes
system.mem_cntrl.avgRdQLen                       1.04                       # Average read queue length when enqueuing
system.mem_cntrl.avgWrQLen                      24.76                       # Average write queue length when enqueuing
system.mem_cntrl.readRowHits                     2403                       # Number of row buffer hits during reads
system.mem_cntrl.writeRowHits                     179                       # Number of row buffer hits during writes
system.mem_cntrl.readRowHitRate                 74.12                       # Row buffer hit rate for reads
system.mem_cntrl.writeRowHitRate                44.42                       # Row buffer hit rate for writes
system.mem_cntrl.avgGap                     333913.26                       # Average gap between requests
system.mem_cntrl.pageHitRate                    70.84                       # Row buffer hit rate, read and write combined
system.mem_cntrl_0.actEnergy                  4341120                       # Energy for activate commands per rank (pJ)
system.mem_cntrl_0.preEnergy                  2307360                       # Energy for precharge commands per rank (pJ)
system.mem_cntrl_0.readEnergy                13166160                       # Energy for read commands per rank (pJ)
system.mem_cntrl_0.writeEnergy                 908280                       # Energy for write commands per rank (pJ)
system.mem_cntrl_0.refreshEnergy         91581360.000000                       # Energy for refresh commands per rank (pJ)
system.mem_cntrl_0.actBackEnergy             48168420                       # Energy for active background per rank (pJ)
system.mem_cntrl_0.preBackEnergy              2709600                       # Energy for precharge background per rank (pJ)
system.mem_cntrl_0.actPowerDownEnergy       332405760                       # Energy for active power-down per rank (pJ)
system.mem_cntrl_0.prePowerDownEnergy       101149440                       # Energy for precharge power-down per rank (pJ)
system.mem_cntrl_0.selfRefreshEnergy         33337620                       # Energy for self refresh per rank (pJ)
system.mem_cntrl_0.totalEnergy              630075120                       # Total energy per rank (pJ)
system.mem_cntrl_0.averagePower            515.651952                       # Core power per rank (mW)
system.mem_cntrl_0.totalIdleTime           1109138250                       # Total Idle time Per DRAM Rank
system.mem_cntrl_0.memoryStateTime::IDLE      2904000                       # Time in different power states
system.mem_cntrl_0.memoryStateTime::REF      38800000                       # Time in different power states
system.mem_cntrl_0.memoryStateTime::SREF    120498000                       # Time in different power states
system.mem_cntrl_0.memoryStateTime::PRE_PDN    263407250                       # Time in different power states
system.mem_cntrl_0.memoryStateTime::ACT      70768500                       # Time in different power states
system.mem_cntrl_0.memoryStateTime::ACT_PDN    728143750                       # Time in different power states
system.mem_cntrl_1.actEnergy                  3312960                       # Energy for activate commands per rank (pJ)
system.mem_cntrl_1.preEnergy                  1760880                       # Energy for precharge commands per rank (pJ)
system.mem_cntrl_1.readEnergy                10060260                       # Energy for read commands per rank (pJ)
system.mem_cntrl_1.writeEnergy                1216260                       # Energy for write commands per rank (pJ)
system.mem_cntrl_1.refreshEnergy         90966720.000000                       # Energy for refresh commands per rank (pJ)
system.mem_cntrl_1.actBackEnergy             43080030                       # Energy for active background per rank (pJ)
system.mem_cntrl_1.preBackEnergy              3844320                       # Energy for precharge background per rank (pJ)
system.mem_cntrl_1.actPowerDownEnergy       277129440                       # Energy for active power-down per rank (pJ)
system.mem_cntrl_1.prePowerDownEnergy       110713920                       # Energy for precharge power-down per rank (pJ)
system.mem_cntrl_1.selfRefreshEnergy         65846340                       # Energy for self refresh per rank (pJ)
system.mem_cntrl_1.totalEnergy              607931130                       # Total energy per rank (pJ)
system.mem_cntrl_1.averagePower            497.529364                       # Core power per rank (mW)
system.mem_cntrl_1.totalIdleTime           1117380250                       # Total Idle time Per DRAM Rank
system.mem_cntrl_1.memoryStateTime::IDLE      6204000                       # Time in different power states
system.mem_cntrl_1.memoryStateTime::REF      38606000                       # Time in different power states
system.mem_cntrl_1.memoryStateTime::SREF    226038000                       # Time in different power states
system.mem_cntrl_1.memoryStateTime::PRE_PDN    288248250                       # Time in different power states
system.mem_cntrl_1.memoryStateTime::ACT      59514000                       # Time in different power states
system.mem_cntrl_1.memoryStateTime::ACT_PDN    603528000                       # Time in different power states
system.pwrStateResidencyTicks::UNDEFINED 4783208949500                       # Cumulative time (in ticks) in various power states
system.apicbridge.pwrStateResidencyTicks::UNDEFINED 4783208949500                       # Cumulative time (in ticks) in various power states
system.bridge.pwrStateResidencyTicks::UNDEFINED 4783208949500                       # Cumulative time (in ticks) in various power states
system.cpu.branchPred.lookups                  436849                       # Number of BP lookups
system.cpu.branchPred.condPredicted            436849                       # Number of conditional branches predicted
system.cpu.branchPred.condIncorrect             50060                       # Number of conditional branches incorrect
system.cpu.branchPred.BTBLookups               383834                       # Number of BTB lookups
system.cpu.branchPred.BTBHits                       0                       # Number of BTB hits
system.cpu.branchPred.BTBCorrect                    0                       # Number of correct BTB predictions (this stat may not work properly.
system.cpu.branchPred.BTBHitPct              0.000000                       # BTB Hit Percentage
system.cpu.branchPred.usedRAS                   44610                       # Number of times the RAS was used to get a target.
system.cpu.branchPred.RASInCorrect              10069                       # Number of incorrect RAS predictions.
system.cpu.branchPred.correctpredictionPercent    88.540663                       # Correct prediction percentage
system.cpu.branchPred.indirectLookups          383834                       # Number of indirect predictor lookups.
system.cpu.branchPred.indirectHits             108573                       # Number of indirect target hits.
system.cpu.branchPred.indirectMisses           275261                       # Number of indirect misses.
system.cpu.branchPredindirectMispredicted        35469                       # Number of mispredicted indirect branches.
system.cpu.dtb.walker.pwrStateResidencyTicks::UNDEFINED 4783208949500                       # Cumulative time (in ticks) in various power states
system.cpu.dtb.rdAccesses                      355331                       # TLB accesses on read requests
system.cpu.dtb.wrAccesses                      225117                       # TLB accesses on write requests
system.cpu.dtb.rdMisses                          8925                       # TLB misses on read requests
system.cpu.dtb.wrMisses                          1850                       # TLB misses on write requests
system.cpu.apic_clk_domain.clock                 8000                       # Clock period in ticks
system.cpu.interrupts.pwrStateResidencyTicks::UNDEFINED 4783208949500                       # Cumulative time (in ticks) in various power states
system.cpu.itb.walker.pwrStateResidencyTicks::UNDEFINED 4783208949500                       # Cumulative time (in ticks) in various power states
system.cpu.itb.rdAccesses                           0                       # TLB accesses on read requests
system.cpu.itb.wrAccesses                      278751                       # TLB accesses on write requests
system.cpu.itb.rdMisses                             0                       # TLB misses on read requests
system.cpu.itb.wrMisses                          1357                       # TLB misses on write requests
system.cpu.pwrStateResidencyTicks::ON      2486781000                       # Cumulative time (in ticks) in various power states
system.cpu.numCycles                          2443800                       # number of cpu cycles simulated
system.cpu.numWorkItemsStarted                      0                       # number of work items this cpu started
system.cpu.numWorkItemsCompleted                    0                       # number of work items this cpu completed
system.cpu.fetch.icacheStallCycles             568509                       # Number of cycles fetch is stalled on an Icache miss
system.cpu.fetch.Insts                        1983558                       # Number of instructions fetch has processed
system.cpu.fetch.Branches                      436849                       # Number of branches that fetch encountered
system.cpu.fetch.predictedBranches             153183                       # Number of branches that fetch has predicted taken
system.cpu.fetch.Cycles                       1589943                       # Number of cycles fetch has run and was not squashing or blocked
system.cpu.fetch.SquashCycles                  109292                       # Number of cycles fetch has spent squashing
system.cpu.fetch.TlbCycles                      48301                       # Number of cycles fetch has spent waiting for tlb
system.cpu.fetch.MiscStallCycles                 1729                       # Number of cycles fetch has spent waiting on interrupts, or bad addresses, or out of MSHRs
system.cpu.fetch.PendingTrapStallCycles         36112                       # Number of stall cycles due to pending traps
system.cpu.fetch.PendingQuiesceStallCycles           18                       # Number of stall cycles due to pending quiesce instructions
system.cpu.fetch.IcacheWaitRetryStallCycles           37                       # Number of stall cycles due to full MSHR
system.cpu.fetch.CacheLines                    272953                       # Number of cache lines fetched
system.cpu.fetch.IcacheSquashes                 19896                       # Number of outstanding Icache misses that were squashed
system.cpu.fetch.ItlbSquashes                     660                       # Number of outstanding ITLB misses that were squashed
system.cpu.fetch.rateDist::samples            2299295                       # Number of instructions fetched each cycle (Total)
system.cpu.fetch.rateDist::mean              1.702655                       # Number of instructions fetched each cycle (Total)
system.cpu.fetch.rateDist::stdev             3.066900                       # Number of instructions fetched each cycle (Total)
system.cpu.fetch.rateDist::underflows               0      0.00%      0.00% # Number of instructions fetched each cycle (Total)
system.cpu.fetch.rateDist::0                  1670321     72.64%     72.64% # Number of instructions fetched each cycle (Total)
system.cpu.fetch.rateDist::1                    57526      2.50%     75.15% # Number of instructions fetched each cycle (Total)
system.cpu.fetch.rateDist::2                    30279      1.32%     76.46% # Number of instructions fetched each cycle (Total)
system.cpu.fetch.rateDist::3                    38226      1.66%     78.13% # Number of instructions fetched each cycle (Total)
system.cpu.fetch.rateDist::4                    36505      1.59%     79.71% # Number of instructions fetched each cycle (Total)
system.cpu.fetch.rateDist::5                    33268      1.45%     81.16% # Number of instructions fetched each cycle (Total)
system.cpu.fetch.rateDist::6                    32462      1.41%     82.57% # Number of instructions fetched each cycle (Total)
system.cpu.fetch.rateDist::7                    30653      1.33%     83.91% # Number of instructions fetched each cycle (Total)
system.cpu.fetch.rateDist::8                   370055     16.09%    100.00% # Number of instructions fetched each cycle (Total)
system.cpu.fetch.rateDist::overflows                0      0.00%    100.00% # Number of instructions fetched each cycle (Total)
system.cpu.fetch.rateDist::min_value                0                       # Number of instructions fetched each cycle (Total)
system.cpu.fetch.rateDist::max_value                8                       # Number of instructions fetched each cycle (Total)
system.cpu.fetch.rateDist::total              2299295                       # Number of instructions fetched each cycle (Total)
system.cpu.fetch.branchRate                  0.178758                       # Number of branch fetches per cycle
system.cpu.fetch.rate                        0.811670                       # Number of inst fetches per cycle
system.cpu.decode.IdleCycles                   534923                       # Number of cycles decode is idle
system.cpu.decode.BlockedCycles               1192789                       # Number of cycles decode is blocked
system.cpu.decode.RunCycles                    450470                       # Number of cycles decode is running
system.cpu.decode.UnblockCycles                 66467                       # Number of cycles decode is unblocking
system.cpu.decode.SquashCycles                  54646                       # Number of cycles decode is squashing
system.cpu.decode.DecodedInsts                3512167                       # Number of instructions handled by decode
system.cpu.rename.SquashCycles                  54646                       # Number of cycles rename is squashing
system.cpu.rename.IdleCycles                   577341                       # Number of cycles rename is idle
system.cpu.rename.BlockCycles                  537448                       # Number of cycles rename is blocking
system.cpu.rename.serializeStallCycles         362226                       # count of cycles rename stalled for serializing inst
system.cpu.rename.RunCycles                    470354                       # Number of cycles rename is running
system.cpu.rename.UnblockCycles                297280                       # Number of cycles rename is unblocking
system.cpu.rename.RenamedInsts                3292907                       # Number of instructions processed by rename
system.cpu.rename.ROBFullEvents                  5867                       # Number of times rename has blocked due to ROB full
system.cpu.rename.IQFullEvents                  27772                       # Number of times rename has blocked due to IQ full
system.cpu.rename.LQFullEvents                  26812                       # Number of times rename has blocked due to LQ full
system.cpu.rename.SQFullEvents                 223401                       # Number of times rename has blocked due to SQ full
system.cpu.rename.RenamedOperands             3619644                       # Number of destination operands rename has renamed
system.cpu.rename.RenameLookups               8273022                       # Number of register rename lookups that rename has made
system.cpu.rename.int_rename_lookups          5098008                       # Number of integer rename lookups
system.cpu.rename.fp_rename_lookups             12540                       # Number of floating rename lookups
system.cpu.rename.CommittedMaps               1946397                       # Number of HB maps that are committed
system.cpu.rename.UndoneMaps                  1673234                       # Number of HB maps that are undone due to squashing
system.cpu.rename.serializingInsts              14186                       # count of serializing insts renamed
system.cpu.rename.tempSerializingInsts          14213                       # count of temporary serializing insts renamed
system.cpu.rename.skidInsts                    282561                       # count of insts added to the skid buffer
system.cpu.memDep0.insertedLoads               433431                       # Number of loads inserted to the mem dependence unit.
system.cpu.memDep0.insertedStores              275328                       # Number of stores inserted to the mem dependence unit.
system.cpu.memDep0.conflictingLoads             32144                       # Number of conflicting loads.
system.cpu.memDep0.conflictingStores            32929                       # Number of conflicting stores.
system.cpu.iq.iqInstsAdded                    2929240                       # Number of instructions added to the IQ (excludes non-spec)
system.cpu.iq.iqNonSpecInstsAdded               16707                       # Number of non-speculative instructions added to the IQ
system.cpu.iq.iqInstsIssued                   2528893                       # Number of instructions issued
system.cpu.iq.iqSquashedInstsIssued             19465                       # Number of squashed instructions issued
system.cpu.iq.iqSquashedInstsExamined         1199237                       # Number of squashed instructions iterated over during squash; mainly for profiling
system.cpu.iq.iqSquashedOperandsExamined      1755552                       # Number of squashed operands that are examined and possibly removed from graph
system.cpu.iq.iqSquashedNonSpecRemoved           5066                       # Number of squashed non-spec instructions that were removed
system.cpu.iq.issued_per_cycle::samples       2299295                       # Number of insts issued each cycle
system.cpu.iq.issued_per_cycle::mean         1.099856                       # Number of insts issued each cycle
system.cpu.iq.issued_per_cycle::stdev        1.979242                       # Number of insts issued each cycle
system.cpu.iq.issued_per_cycle::underflows            0      0.00%      0.00% # Number of insts issued each cycle
system.cpu.iq.issued_per_cycle::0             1550659     67.44%     67.44% # Number of insts issued each cycle
system.cpu.iq.issued_per_cycle::1              192681      8.38%     75.82% # Number of insts issued each cycle
system.cpu.iq.issued_per_cycle::2              127251      5.53%     81.35% # Number of insts issued each cycle
system.cpu.iq.issued_per_cycle::3              103768      4.51%     85.87% # Number of insts issued each cycle
system.cpu.iq.issued_per_cycle::4               94494      4.11%     89.98% # Number of insts issued each cycle
system.cpu.iq.issued_per_cycle::5               84400      3.67%     93.65% # Number of insts issued each cycle
system.cpu.iq.issued_per_cycle::6               76534      3.33%     96.98% # Number of insts issued each cycle
system.cpu.iq.issued_per_cycle::7               44838      1.95%     98.93% # Number of insts issued each cycle
system.cpu.iq.issued_per_cycle::8               24670      1.07%    100.00% # Number of insts issued each cycle
system.cpu.iq.issued_per_cycle::overflows            0      0.00%    100.00% # Number of insts issued each cycle
system.cpu.iq.issued_per_cycle::min_value            0                       # Number of insts issued each cycle
system.cpu.iq.issued_per_cycle::max_value            8                       # Number of insts issued each cycle
system.cpu.iq.issued_per_cycle::total         2299295                       # Number of insts issued each cycle
system.cpu.iq.fu_full::No_OpClass                   0      0.00%      0.00% # attempts to use FU when none available
system.cpu.iq.fu_full::IntAlu                   24223     65.67%     65.67% # attempts to use FU when none available
system.cpu.iq.fu_full::IntMult                      0      0.00%     65.67% # attempts to use FU when none available
system.cpu.iq.fu_full::IntDiv                       0      0.00%     65.67% # attempts to use FU when none available
system.cpu.iq.fu_full::FloatAdd                    50      0.14%     65.80% # attempts to use FU when none available
system.cpu.iq.fu_full::FloatCmp                     0      0.00%     65.80% # attempts to use FU when none available
system.cpu.iq.fu_full::FloatCvt                     0      0.00%     65.80% # attempts to use FU when none available
system.cpu.iq.fu_full::FloatMult                    0      0.00%     65.80% # attempts to use FU when none available
system.cpu.iq.fu_full::FloatMultAcc                 0      0.00%     65.80% # attempts to use FU when none available
system.cpu.iq.fu_full::FloatDiv                     0      0.00%     65.80% # attempts to use FU when none available
system.cpu.iq.fu_full::FloatMisc                    0      0.00%     65.80% # attempts to use FU when none available
system.cpu.iq.fu_full::FloatSqrt                    0      0.00%     65.80% # attempts to use FU when none available
system.cpu.iq.fu_full::SimdAdd                      0      0.00%     65.80% # attempts to use FU when none available
system.cpu.iq.fu_full::SimdAddAcc                   0      0.00%     65.80% # attempts to use FU when none available
system.cpu.iq.fu_full::SimdAlu                      0      0.00%     65.80% # attempts to use FU when none available
system.cpu.iq.fu_full::SimdCmp                      0      0.00%     65.80% # attempts to use FU when none available
system.cpu.iq.fu_full::SimdCvt                      0      0.00%     65.80% # attempts to use FU when none available
system.cpu.iq.fu_full::SimdMisc                     0      0.00%     65.80% # attempts to use FU when none available
system.cpu.iq.fu_full::SimdMult                     0      0.00%     65.80% # attempts to use FU when none available
system.cpu.iq.fu_full::SimdMultAcc                  0      0.00%     65.80% # attempts to use FU when none available
system.cpu.iq.fu_full::SimdShift                    0      0.00%     65.80% # attempts to use FU when none available
system.cpu.iq.fu_full::SimdShiftAcc                 0      0.00%     65.80% # attempts to use FU when none available
system.cpu.iq.fu_full::SimdSqrt                     0      0.00%     65.80% # attempts to use FU when none available
system.cpu.iq.fu_full::SimdFloatAdd                 0      0.00%     65.80% # attempts to use FU when none available
system.cpu.iq.fu_full::SimdFloatAlu                 0      0.00%     65.80% # attempts to use FU when none available
system.cpu.iq.fu_full::SimdFloatCmp                 0      0.00%     65.80% # attempts to use FU when none available
system.cpu.iq.fu_full::SimdFloatCvt                 0      0.00%     65.80% # attempts to use FU when none available
system.cpu.iq.fu_full::SimdFloatDiv                 0      0.00%     65.80% # attempts to use FU when none available
system.cpu.iq.fu_full::SimdFloatMisc                0      0.00%     65.80% # attempts to use FU when none available
system.cpu.iq.fu_full::SimdFloatMult                0      0.00%     65.80% # attempts to use FU when none available
system.cpu.iq.fu_full::SimdFloatMultAcc             0      0.00%     65.80% # attempts to use FU when none available
system.cpu.iq.fu_full::SimdFloatSqrt                0      0.00%     65.80% # attempts to use FU when none available
system.cpu.iq.fu_full::MemRead                   8933     24.22%     90.02% # attempts to use FU when none available
system.cpu.iq.fu_full::MemWrite                  3641      9.87%     99.89% # attempts to use FU when none available
system.cpu.iq.fu_full::FloatMemRead                16      0.04%     99.93% # attempts to use FU when none available
system.cpu.iq.fu_full::FloatMemWrite               25      0.07%    100.00% # attempts to use FU when none available
system.cpu.iq.fu_full::IprAccess                    0      0.00%    100.00% # attempts to use FU when none available
system.cpu.iq.fu_full::InstPrefetch                 0      0.00%    100.00% # attempts to use FU when none available
system.cpu.iq.FU_type_0::No_OpClass             33775      1.34%      1.34% # Type of FU issued
system.cpu.iq.FU_type_0::IntAlu               1877418     74.24%     75.57% # Type of FU issued
system.cpu.iq.FU_type_0::IntMult                 1460      0.06%     75.63% # Type of FU issued
system.cpu.iq.FU_type_0::IntDiv                  1848      0.07%     75.71% # Type of FU issued
system.cpu.iq.FU_type_0::FloatAdd                3109      0.12%     75.83% # Type of FU issued
system.cpu.iq.FU_type_0::FloatCmp                   0      0.00%     75.83% # Type of FU issued
system.cpu.iq.FU_type_0::FloatCvt                   0      0.00%     75.83% # Type of FU issued
system.cpu.iq.FU_type_0::FloatMult                  0      0.00%     75.83% # Type of FU issued
system.cpu.iq.FU_type_0::FloatMultAcc               0      0.00%     75.83% # Type of FU issued
system.cpu.iq.FU_type_0::FloatDiv                   0      0.00%     75.83% # Type of FU issued
system.cpu.iq.FU_type_0::FloatMisc                  0      0.00%     75.83% # Type of FU issued
system.cpu.iq.FU_type_0::FloatSqrt                  0      0.00%     75.83% # Type of FU issued
system.cpu.iq.FU_type_0::SimdAdd                    0      0.00%     75.83% # Type of FU issued
system.cpu.iq.FU_type_0::SimdAddAcc                 0      0.00%     75.83% # Type of FU issued
system.cpu.iq.FU_type_0::SimdAlu                    0      0.00%     75.83% # Type of FU issued
system.cpu.iq.FU_type_0::SimdCmp                    0      0.00%     75.83% # Type of FU issued
system.cpu.iq.FU_type_0::SimdCvt                    0      0.00%     75.83% # Type of FU issued
system.cpu.iq.FU_type_0::SimdMisc                   0      0.00%     75.83% # Type of FU issued
system.cpu.iq.FU_type_0::SimdMult                   0      0.00%     75.83% # Type of FU issued
system.cpu.iq.FU_type_0::SimdMultAcc                0      0.00%     75.83% # Type of FU issued
system.cpu.iq.FU_type_0::SimdShift                  0      0.00%     75.83% # Type of FU issued
system.cpu.iq.FU_type_0::SimdShiftAcc               0      0.00%     75.83% # Type of FU issued
system.cpu.iq.FU_type_0::SimdSqrt                   0      0.00%     75.83% # Type of FU issued
system.cpu.iq.FU_type_0::SimdFloatAdd               0      0.00%     75.83% # Type of FU issued
system.cpu.iq.FU_type_0::SimdFloatAlu               0      0.00%     75.83% # Type of FU issued
system.cpu.iq.FU_type_0::SimdFloatCmp               0      0.00%     75.83% # Type of FU issued
system.cpu.iq.FU_type_0::SimdFloatCvt               0      0.00%     75.83% # Type of FU issued
system.cpu.iq.FU_type_0::SimdFloatDiv               0      0.00%     75.83% # Type of FU issued
system.cpu.iq.FU_type_0::SimdFloatMisc              0      0.00%     75.83% # Type of FU issued
system.cpu.iq.FU_type_0::SimdFloatMult              0      0.00%     75.83% # Type of FU issued
system.cpu.iq.FU_type_0::SimdFloatMultAcc            0      0.00%     75.83% # Type of FU issued
system.cpu.iq.FU_type_0::SimdFloatSqrt              0      0.00%     75.83% # Type of FU issued
system.cpu.iq.FU_type_0::MemRead               373717     14.78%     90.61% # Type of FU issued
system.cpu.iq.FU_type_0::MemWrite              236012      9.33%     99.94% # Type of FU issued
system.cpu.iq.FU_type_0::FloatMemRead            1448      0.06%    100.00% # Type of FU issued
system.cpu.iq.FU_type_0::FloatMemWrite            106      0.00%    100.00% # Type of FU issued
system.cpu.iq.FU_type_0::IprAccess                  0      0.00%    100.00% # Type of FU issued
system.cpu.iq.FU_type_0::InstPrefetch               0      0.00%    100.00% # Type of FU issued
system.cpu.iq.FU_type_0::total                2528893                       # Type of FU issued
system.cpu.iq.rate                           1.034820                       # Inst issue rate
system.cpu.iq.fu_busy_cnt                       36888                       # FU busy when requested
system.cpu.iq.fu_busy_rate                   0.014587                       # FU busy rate (busy events/executed inst)
system.cpu.iq.int_inst_queue_reads            7403447                       # Number of integer instruction queue reads
system.cpu.iq.int_inst_queue_writes           4134652                       # Number of integer instruction queue writes
system.cpu.iq.int_inst_queue_wakeup_accesses      2367264                       # Number of integer instruction queue wakeup accesses
system.cpu.iq.fp_inst_queue_reads                9987                       # Number of floating instruction queue reads
system.cpu.iq.fp_inst_queue_writes              11740                       # Number of floating instruction queue writes
system.cpu.iq.fp_inst_queue_wakeup_accesses         4185                       # Number of floating instruction queue wakeup accesses
system.cpu.iq.int_alu_accesses                2527082                       # Number of integer alu accesses
system.cpu.iq.fp_alu_accesses                    4924                       # Number of floating point alu accesses
system.cpu.iew.lsq.thread0.forwLoads            31568                       # Number of loads that had data forwarded from stores
system.cpu.iew.lsq.thread0.invAddrLoads             0                       # Number of loads ignored due to an invalid address
system.cpu.iew.lsq.thread0.squashedLoads       176533                       # Number of loads squashed
system.cpu.iew.lsq.thread0.ignoredResponses          640                       # Number of memory responses ignored because the instruction is squashed
system.cpu.iew.lsq.thread0.memOrderViolation         1242                       # Number of memory ordering violations
system.cpu.iew.lsq.thread0.squashedStores        85898                       # Number of stores squashed
system.cpu.iew.lsq.thread0.invAddrSwpfs             0                       # Number of software prefetches ignored due to an invalid address
system.cpu.iew.lsq.thread0.blockedLoads             0                       # Number of blocked loads due to partial load-store forwarding
system.cpu.iew.lsq.thread0.rescheduledLoads         1384                       # Number of loads that were rescheduled
system.cpu.iew.lsq.thread0.cacheBlocked          2325                       # Number of times an access to memory failed due to the cache being blocked
system.cpu.iew.iewIdleCycles                        0                       # Number of cycles IEW is idle
system.cpu.iew.iewSquashCycles                  54646                       # Number of cycles IEW is squashing
system.cpu.iew.iewBlockCycles                  289225                       # Number of cycles IEW is blocking
system.cpu.iew.iewUnblockCycles                130790                       # Number of cycles IEW is unblocking
system.cpu.iew.iewDispatchedInsts             2945950                       # Number of instructions dispatched to IQ
system.cpu.iew.iewDispSquashedInsts              4983                       # Number of squashed instructions skipped by dispatch
system.cpu.iew.iewDispLoadInsts                433431                       # Number of dispatched load instructions
system.cpu.iew.iewDispStoreInsts               275328                       # Number of dispatched store instructions
system.cpu.iew.iewDispNonSpecInsts              15233                       # Number of dispatched non-speculative instructions
system.cpu.iew.iewIQFullEvents                   1157                       # Number of times the IQ has become full, causing a stall
system.cpu.iew.iewLSQFullEvents                129187                       # Number of times the LSQ has become full, causing a stall
system.cpu.iew.memOrderViolationEvents           1242                       # Number of memory order violations
system.cpu.iew.predictedTakenIncorrect          16332                       # Number of branches that were predicted taken incorrectly
system.cpu.iew.predictedNotTakenIncorrect        51017                       # Number of branches that were predicted not taken incorrectly
system.cpu.iew.branchMispredicts                67349                       # Number of branch mispredicts detected at execute
system.cpu.iew.iewExecutedInsts               2416127                       # Number of executed instructions
system.cpu.iew.iewExecLoadInsts                346355                       # Number of load instructions executed
system.cpu.iew.iewExecSquashedInsts            102126                       # Number of squashed instructions skipped in execute
system.cpu.iew.exec_swp                             0                       # number of swp insts executed
system.cpu.iew.exec_nop                             3                       # number of nop insts executed
system.cpu.iew.exec_refs                       569624                       # number of memory reference insts executed
system.cpu.iew.exec_branches                   239741                       # Number of branches executed
system.cpu.iew.exec_stores                     223269                       # Number of stores executed
system.cpu.iew.exec_rate                     0.988676                       # Inst execution rate
system.cpu.iew.wb_sent                        2388308                       # cumulative count of insts sent to commit
system.cpu.iew.wb_count                       2371449                       # cumulative count of insts written-back
system.cpu.iew.wb_producers                   1562377                       # num instructions producing a value
system.cpu.iew.wb_consumers                   2513744                       # num instructions consuming a value
system.cpu.iew.wb_rate                       0.970394                       # insts written-back per cycle
system.cpu.iew.wb_fanout                     0.621534                       # average fanout of values written-back
system.cpu.commit.commitSquashedInsts         1198084                       # The number of squashed insts skipped by commit
system.cpu.commit.commitNonSpecStalls           11641                       # The number of times commit has been forced to stall to communicate backwards
system.cpu.commit.branchMispredicts             52087                       # The number of times a branch was mispredicted
system.cpu.commit.committed_per_cycle::samples      2104168                       # Number of insts commited each cycle
system.cpu.commit.committed_per_cycle::mean     0.830114                       # Number of insts commited each cycle
system.cpu.commit.committed_per_cycle::stdev     1.906175                       # Number of insts commited each cycle
system.cpu.commit.committed_per_cycle::underflows            0      0.00%      0.00% # Number of insts commited each cycle
system.cpu.commit.committed_per_cycle::0      1572947     74.75%     74.75% # Number of insts commited each cycle
system.cpu.commit.committed_per_cycle::1       190437      9.05%     83.80% # Number of insts commited each cycle
system.cpu.commit.committed_per_cycle::2        77271      3.67%     87.48% # Number of insts commited each cycle
system.cpu.commit.committed_per_cycle::3        79634      3.78%     91.26% # Number of insts commited each cycle
system.cpu.commit.committed_per_cycle::4        44358      2.11%     93.37% # Number of insts commited each cycle
system.cpu.commit.committed_per_cycle::5        27787      1.32%     94.69% # Number of insts commited each cycle
system.cpu.commit.committed_per_cycle::6        17583      0.84%     95.53% # Number of insts commited each cycle
system.cpu.commit.committed_per_cycle::7        12255      0.58%     96.11% # Number of insts commited each cycle
system.cpu.commit.committed_per_cycle::8        81896      3.89%    100.00% # Number of insts commited each cycle
system.cpu.commit.committed_per_cycle::overflows            0      0.00%    100.00% # Number of insts commited each cycle
system.cpu.commit.committed_per_cycle::min_value            0                       # Number of insts commited each cycle
system.cpu.commit.committed_per_cycle::max_value            8                       # Number of insts commited each cycle
system.cpu.commit.committed_per_cycle::total      2104168                       # Number of insts commited each cycle
system.cpu.commit.committedInsts               932965                       # Number of instructions committed
system.cpu.commit.committedOps                1746699                       # Number of ops (including micro ops) committed
system.cpu.commit.swp_count                         0                       # Number of s/w prefetches committed
system.cpu.commit.refs                         446326                       # Number of memory references committed
system.cpu.commit.loads                        256896                       # Number of loads committed
system.cpu.commit.membars                        1114                       # Number of memory barriers committed
system.cpu.commit.branches                     186674                       # Number of branches committed
system.cpu.commit.vec_insts                         0                       # Number of committed Vector instructions.
system.cpu.commit.fp_insts                       2404                       # Number of committed floating point instructions.
system.cpu.commit.int_insts                   1729001                       # Number of committed integer instructions.
system.cpu.commit.function_calls                19845                       # Number of function calls committed.
system.cpu.commit.op_class_0::No_OpClass        14734      0.84%      0.84% # Class of committed instruction
system.cpu.commit.op_class_0::IntAlu          1280906     73.33%     74.18% # Class of committed instruction
system.cpu.commit.op_class_0::IntMult            1267      0.07%     74.25% # Class of committed instruction
system.cpu.commit.op_class_0::IntDiv             1644      0.09%     74.34% # Class of committed instruction
system.cpu.commit.op_class_0::FloatAdd           1822      0.10%     74.45% # Class of committed instruction
system.cpu.commit.op_class_0::FloatCmp              0      0.00%     74.45% # Class of committed instruction
system.cpu.commit.op_class_0::FloatCvt              0      0.00%     74.45% # Class of committed instruction
system.cpu.commit.op_class_0::FloatMult             0      0.00%     74.45% # Class of committed instruction
system.cpu.commit.op_class_0::FloatMultAcc            0      0.00%     74.45% # Class of committed instruction
system.cpu.commit.op_class_0::FloatDiv              0      0.00%     74.45% # Class of committed instruction
system.cpu.commit.op_class_0::FloatMisc             0      0.00%     74.45% # Class of committed instruction
system.cpu.commit.op_class_0::FloatSqrt             0      0.00%     74.45% # Class of committed instruction
system.cpu.commit.op_class_0::SimdAdd               0      0.00%     74.45% # Class of committed instruction
system.cpu.commit.op_class_0::SimdAddAcc            0      0.00%     74.45% # Class of committed instruction
system.cpu.commit.op_class_0::SimdAlu               0      0.00%     74.45% # Class of committed instruction
system.cpu.commit.op_class_0::SimdCmp               0      0.00%     74.45% # Class of committed instruction
system.cpu.commit.op_class_0::SimdCvt               0      0.00%     74.45% # Class of committed instruction
system.cpu.commit.op_class_0::SimdMisc              0      0.00%     74.45% # Class of committed instruction
system.cpu.commit.op_class_0::SimdMult              0      0.00%     74.45% # Class of committed instruction
system.cpu.commit.op_class_0::SimdMultAcc            0      0.00%     74.45% # Class of committed instruction
system.cpu.commit.op_class_0::SimdShift             0      0.00%     74.45% # Class of committed instruction
system.cpu.commit.op_class_0::SimdShiftAcc            0      0.00%     74.45% # Class of committed instruction
system.cpu.commit.op_class_0::SimdSqrt              0      0.00%     74.45% # Class of committed instruction
system.cpu.commit.op_class_0::SimdFloatAdd            0      0.00%     74.45% # Class of committed instruction
system.cpu.commit.op_class_0::SimdFloatAlu            0      0.00%     74.45% # Class of committed instruction
system.cpu.commit.op_class_0::SimdFloatCmp            0      0.00%     74.45% # Class of committed instruction
system.cpu.commit.op_class_0::SimdFloatCvt            0      0.00%     74.45% # Class of committed instruction
system.cpu.commit.op_class_0::SimdFloatDiv            0      0.00%     74.45% # Class of committed instruction
system.cpu.commit.op_class_0::SimdFloatMisc            0      0.00%     74.45% # Class of committed instruction
system.cpu.commit.op_class_0::SimdFloatMult            0      0.00%     74.45% # Class of committed instruction
system.cpu.commit.op_class_0::SimdFloatMultAcc            0      0.00%     74.45% # Class of committed instruction
system.cpu.commit.op_class_0::SimdFloatSqrt            0      0.00%     74.45% # Class of committed instruction
system.cpu.commit.op_class_0::MemRead          256442     14.68%     89.13% # Class of committed instruction
system.cpu.commit.op_class_0::MemWrite         189430     10.85%     99.97% # Class of committed instruction
system.cpu.commit.op_class_0::FloatMemRead          454      0.03%    100.00% # Class of committed instruction
system.cpu.commit.op_class_0::FloatMemWrite            0      0.00%    100.00% # Class of committed instruction
system.cpu.commit.op_class_0::IprAccess             0      0.00%    100.00% # Class of committed instruction
system.cpu.commit.op_class_0::InstPrefetch            0      0.00%    100.00% # Class of committed instruction
system.cpu.commit.op_class_0::total           1746699                       # Class of committed instruction
system.cpu.commit.bw_lim_events                 81896                       # number cycles where commit BW limit reached
system.cpu.rob.rob_reads                      4961504                       # The number of ROB reads
system.cpu.rob.rob_writes                     6088083                       # The number of ROB writes
system.cpu.timesIdled                            7319                       # Number of times that the entire CPU went into an idle state and unscheduled itself
system.cpu.idleCycles                          144505                       # Total number of cycles that the CPU has spent unscheduled due to idling
system.cpu.committedInsts                      932965                       # Number of Instructions Simulated
system.cpu.committedOps                       1746699                       # Number of Ops (including micro ops) Simulated
system.cpu.cpi                               2.619391                       # CPI: Cycles Per Instruction
system.cpu.cpi_total                         2.619391                       # CPI: Total CPI of All Threads
system.cpu.ipc                               0.381768                       # IPC: Instructions Per Cycle
system.cpu.ipc_total                         0.381768                       # IPC: Total IPC of All Threads
system.cpu.int_regfile_reads                  3577969                       # number of integer regfile reads
system.cpu.int_regfile_writes                 1890793                       # number of integer regfile writes
system.cpu.fp_regfile_reads                      6703                       # number of floating regfile reads
system.cpu.fp_regfile_writes                     3536                       # number of floating regfile writes
system.cpu.cc_regfile_reads                   1082031                       # number of cc regfile reads
system.cpu.cc_regfile_writes                   698345                       # number of cc regfile writes
system.cpu.misc_regfile_reads                 1094906                       # number of misc regfile reads
system.cpu.misc_regfile_writes                  13075                       # number of misc regfile writes
system.cpu.dcache.tags.pwrStateResidencyTicks::UNDEFINED 4783208949500                       # Cumulative time (in ticks) in various power states
system.cpu.dcache.tags.replacements             20892                       # number of replacements
system.cpu.dcache.tags.tagsinuse                 1024                       # Cycle average of tags in use
system.cpu.dcache.tags.total_refs              468934                       # Total number of references to valid blocks.
system.cpu.dcache.tags.sampled_refs             20892                       # Sample count of references to valid blocks.
system.cpu.dcache.tags.avg_refs             22.445625                       # Average number of references to valid blocks.
system.cpu.dcache.tags.warmup_cycle                 0                       # Cycle when the warmup percentage was hit.
system.cpu.dcache.tags.occ_blocks::cpu.data         1024                       # Average occupied blocks per requestor
system.cpu.dcache.tags.occ_percent::cpu.data            1                       # Average percentage of cache occupancy
system.cpu.dcache.tags.occ_percent::total            1                       # Average percentage of cache occupancy
system.cpu.dcache.tags.occ_task_id_blocks::1024         1024                       # Occupied blocks per task id
system.cpu.dcache.tags.age_task_id_blocks_1024::0           55                       # Occupied blocks per task id
system.cpu.dcache.tags.age_task_id_blocks_1024::1          688                       # Occupied blocks per task id
system.cpu.dcache.tags.age_task_id_blocks_1024::2          281                       # Occupied blocks per task id
system.cpu.dcache.tags.occ_task_id_percent::1024            1                       # Percentage of cache occupancy per task id
system.cpu.dcache.tags.tag_accesses           1021120                       # Number of tag accesses
system.cpu.dcache.tags.data_accesses          1021120                       # Number of data accesses
system.cpu.dcache.pwrStateResidencyTicks::UNDEFINED 4783208949500                       # Cumulative time (in ticks) in various power states
system.cpu.dcache.ReadReq_hits::cpu.data       285317                       # number of ReadReq hits
system.cpu.dcache.ReadReq_hits::total          285317                       # number of ReadReq hits
system.cpu.dcache.WriteReq_hits::cpu.data       180474                       # number of WriteReq hits
system.cpu.dcache.WriteReq_hits::total         180474                       # number of WriteReq hits
system.cpu.dcache.SoftPFReq_hits::cpu.data          567                       # number of SoftPFReq hits
system.cpu.dcache.SoftPFReq_hits::total           567                       # number of SoftPFReq hits
system.cpu.dcache.demand_hits::cpu.data        465791                       # number of demand (read+write) hits
system.cpu.dcache.demand_hits::total           465791                       # number of demand (read+write) hits
system.cpu.dcache.overall_hits::cpu.data       466358                       # number of overall hits
system.cpu.dcache.overall_hits::total          466358                       # number of overall hits
system.cpu.dcache.ReadReq_misses::cpu.data        21940                       # number of ReadReq misses
system.cpu.dcache.ReadReq_misses::total         21940                       # number of ReadReq misses
system.cpu.dcache.WriteReq_misses::cpu.data         8897                       # number of WriteReq misses
system.cpu.dcache.WriteReq_misses::total         8897                       # number of WriteReq misses
system.cpu.dcache.SoftPFReq_misses::cpu.data         2919                       # number of SoftPFReq misses
system.cpu.dcache.SoftPFReq_misses::total         2919                       # number of SoftPFReq misses
system.cpu.dcache.demand_misses::cpu.data        30837                       # number of demand (read+write) misses
system.cpu.dcache.demand_misses::total          30837                       # number of demand (read+write) misses
system.cpu.dcache.overall_misses::cpu.data        33756                       # number of overall misses
system.cpu.dcache.overall_misses::total         33756                       # number of overall misses
system.cpu.dcache.ReadReq_miss_latency::cpu.data    283060000                       # number of ReadReq miss cycles
system.cpu.dcache.ReadReq_miss_latency::total    283060000                       # number of ReadReq miss cycles
system.cpu.dcache.WriteReq_miss_latency::cpu.data    153359983                       # number of WriteReq miss cycles
system.cpu.dcache.WriteReq_miss_latency::total    153359983                       # number of WriteReq miss cycles
system.cpu.dcache.demand_miss_latency::cpu.data    436419983                       # number of demand (read+write) miss cycles
system.cpu.dcache.demand_miss_latency::total    436419983                       # number of demand (read+write) miss cycles
system.cpu.dcache.overall_miss_latency::cpu.data    436419983                       # number of overall miss cycles
[...]
system.l2cache.demand_mshr_misses::total         1452                       # number of demand (read+write) MSHR misses
system.l2cache.overall_mshr_misses::cpu.inst          498                       # number of overall MSHR misses
system.l2cache.overall_mshr_misses::cpu.data          954                       # number of overall MSHR misses
system.l2cache.overall_mshr_misses::total         1452                       # number of overall MSHR misses
system.l2cache.ReadReq_mshr_uncacheable::cpu.data          347                       # number of ReadReq MSHR uncacheable
system.l2cache.ReadReq_mshr_uncacheable::total          347                       # number of ReadReq MSHR uncacheable
system.l2cache.WriteReq_mshr_uncacheable::cpu.data          129                       # number of WriteReq MSHR uncacheable
system.l2cache.WriteReq_mshr_uncacheable::total          129                       # number of WriteReq MSHR uncacheable
system.l2cache.overall_mshr_uncacheable_misses::cpu.data          476                       # number of overall MSHR uncacheable misses
system.l2cache.overall_mshr_uncacheable_misses::total          476                       # number of overall MSHR uncacheable misses
system.l2cache.UpgradeReq_mshr_miss_latency::cpu.data     12515997                       # number of UpgradeReq MSHR miss cycles
system.l2cache.UpgradeReq_mshr_miss_latency::total     12515997                       # number of UpgradeReq MSHR miss cycles
system.l2cache.ReadExReq_mshr_miss_latency::cpu.data     39642500                       # number of ReadExReq MSHR miss cycles
system.l2cache.ReadExReq_mshr_miss_latency::total     39642500                       # number of ReadExReq MSHR miss cycles
system.l2cache.ReadSharedReq_mshr_miss_latency::cpu.inst     40136000                       # number of ReadSharedReq MSHR miss cycles
system.l2cache.ReadSharedReq_mshr_miss_latency::cpu.data     28598501                       # number of ReadSharedReq MSHR miss cycles
system.l2cache.ReadSharedReq_mshr_miss_latency::total     68734501                       # number of ReadSharedReq MSHR miss cycles
system.l2cache.demand_mshr_miss_latency::cpu.inst     40136000                       # number of demand (read+write) MSHR miss cycles
system.l2cache.demand_mshr_miss_latency::cpu.data     68241001                       # number of demand (read+write) MSHR miss cycles
system.l2cache.demand_mshr_miss_latency::total    108377001                       # number of demand (read+write) MSHR miss cycles
system.l2cache.overall_mshr_miss_latency::cpu.inst     40136000                       # number of overall MSHR miss cycles
system.l2cache.overall_mshr_miss_latency::cpu.data     68241001                       # number of overall MSHR miss cycles
system.l2cache.overall_mshr_miss_latency::total    108377001                       # number of overall MSHR miss cycles
system.l2cache.ReadReq_mshr_uncacheable_latency::cpu.data     75819500                       # number of ReadReq MSHR uncacheable cycles
system.l2cache.ReadReq_mshr_uncacheable_latency::total     75819500                       # number of ReadReq MSHR uncacheable cycles
system.l2cache.overall_mshr_uncacheable_latency::cpu.data     75819500                       # number of overall MSHR uncacheable cycles
system.l2cache.overall_mshr_uncacheable_latency::total     75819500                       # number of overall MSHR uncacheable cycles
system.l2cache.UpgradeReq_mshr_miss_rate::cpu.data     0.934783                       # mshr miss rate for UpgradeReq accesses
system.l2cache.UpgradeReq_mshr_miss_rate::total     0.934783                       # mshr miss rate for UpgradeReq accesses
system.l2cache.ReadExReq_mshr_miss_rate::cpu.data     0.053559                       # mshr miss rate for ReadExReq accesses
system.l2cache.ReadExReq_mshr_miss_rate::total     0.053559                       # mshr miss rate for ReadExReq accesses
system.l2cache.ReadSharedReq_mshr_miss_rate::cpu.inst     0.015547                       # mshr miss rate for ReadSharedReq accesses
system.l2cache.ReadSharedReq_mshr_miss_rate::cpu.data     0.012388                       # mshr miss rate for ReadSharedReq accesses
system.l2cache.ReadSharedReq_mshr_miss_rate::total     0.014329                       # mshr miss rate for ReadSharedReq accesses
system.l2cache.demand_mshr_miss_rate::cpu.inst     0.015547                       # mshr miss rate for demand accesses
system.l2cache.demand_mshr_miss_rate::cpu.data     0.028681                       # mshr miss rate for demand accesses
system.l2cache.demand_mshr_miss_rate::total     0.022238                       # mshr miss rate for demand accesses
system.l2cache.overall_mshr_miss_rate::cpu.inst     0.015547                       # mshr miss rate for overall accesses
system.l2cache.overall_mshr_miss_rate::cpu.data     0.028681                       # mshr miss rate for overall accesses
system.l2cache.overall_mshr_miss_rate::total     0.022238                       # mshr miss rate for overall accesses
system.l2cache.UpgradeReq_avg_mshr_miss_latency::cpu.data 14553.484884                       # average UpgradeReq mshr miss latency
system.l2cache.UpgradeReq_avg_mshr_miss_latency::total 14553.484884                       # average UpgradeReq mshr miss latency
system.l2cache.ReadExReq_avg_mshr_miss_latency::cpu.data 56230.496454                       # average ReadExReq mshr miss latency
system.l2cache.ReadExReq_avg_mshr_miss_latency::total 56230.496454                       # average ReadExReq mshr miss latency
system.l2cache.ReadSharedReq_avg_mshr_miss_latency::cpu.inst 80594.377510                       # average ReadSharedReq mshr miss latency
system.l2cache.ReadSharedReq_avg_mshr_miss_latency::cpu.data 114853.417671                       # average ReadSharedReq mshr miss latency
system.l2cache.ReadSharedReq_avg_mshr_miss_latency::total 92014.057564                       # average ReadSharedReq mshr miss latency
system.l2cache.demand_avg_mshr_miss_latency::cpu.inst 80594.377510                       # average overall mshr miss latency
system.l2cache.demand_avg_mshr_miss_latency::cpu.data 71531.447589                       # average overall mshr miss latency
system.l2cache.demand_avg_mshr_miss_latency::total 74639.807851                       # average overall mshr miss latency
system.l2cache.overall_avg_mshr_miss_latency::cpu.inst 80594.377510                       # average overall mshr miss latency
system.l2cache.overall_avg_mshr_miss_latency::cpu.data 71531.447589                       # average overall mshr miss latency
system.l2cache.overall_avg_mshr_miss_latency::total 74639.807851                       # average overall mshr miss latency
system.l2cache.ReadReq_avg_mshr_uncacheable_latency::cpu.data       218500                       # average ReadReq mshr uncacheable latency
system.l2cache.ReadReq_avg_mshr_uncacheable_latency::total       218500                       # average ReadReq mshr uncacheable latency
system.l2cache.overall_avg_mshr_uncacheable_latency::cpu.data 159284.663866                       # average overall mshr uncacheable latency
system.l2cache.overall_avg_mshr_uncacheable_latency::total 159284.663866                       # average overall mshr uncacheable latency
system.membus.snoop_filter.tot_requests         35752                       # Total number of requests made to the snoop filter.
system.membus.snoop_filter.hit_single_requests        34440                       # Number of requests hitting in the snoop filter with a single holder of the requested data.
system.membus.snoop_filter.hit_multi_requests            0                       # Number of requests hitting in the snoop filter with multiple (>1) holders of the requested data.
system.membus.snoop_filter.tot_snoops               0                       # Total number of snoops made to the snoop filter.
system.membus.snoop_filter.hit_single_snoops            0                       # Number of snoops hitting in the snoop filter with a single holder of the requested data.
system.membus.snoop_filter.hit_multi_snoops            0                       # Number of snoops hitting in the snoop filter with multiple (>1) holders of the requested data.
system.membus.pwrStateResidencyTicks::UNDEFINED 4783828021000                       # Cumulative time (in ticks) in various power states
system.membus.trans_dist::ReadReq               35899                       # Transaction distribution
system.membus.trans_dist::ReadResp              36646                       # Transaction distribution
system.membus.trans_dist::WriteReq                129                       # Transaction distribution
system.membus.trans_dist::WriteResp               129                       # Transaction distribution
system.membus.trans_dist::WritebackDirty          511                       # Transaction distribution
system.membus.trans_dist::CleanEvict              578                       # Transaction distribution
system.membus.trans_dist::UpgradeReq             1000                       # Transaction distribution
system.membus.trans_dist::ReadExReq               565                       # Transaction distribution
system.membus.trans_dist::ReadExResp              565                       # Transaction distribution
system.membus.trans_dist::ReadSharedReq           747                       # Transaction distribution
system.membus.trans_dist::MessageReq              117                       # Transaction distribution
system.membus.trans_dist::MessageResp             117                       # Transaction distribution
system.membus.pkt_count_system.apicbridge.master::system.cpu.interrupts.int_slave          234                       # Packet count per connected master and slave (bytes)
system.membus.pkt_count_system.apicbridge.master::total          234                       # Packet count per connected master and slave (bytes)
system.membus.pkt_count_system.l2cache.mem_side::system.bridge.slave          936                       # Packet count per connected master and slave (bytes)
system.membus.pkt_count_system.l2cache.mem_side::system.mem_cntrl.port         4713                       # Packet count per connected master and slave (bytes)
system.membus.pkt_count_system.l2cache.mem_side::system.cpu.interrupts.pio           16                       # Packet count per connected master and slave (bytes)
system.membus.pkt_count_system.l2cache.mem_side::total         5665                       # Packet count per connected master and slave (bytes)
system.membus.pkt_count_system.cpu.itb.walker.port::system.mem_cntrl.port         7981                       # Packet count per connected master and slave (bytes)
system.membus.pkt_count_system.cpu.itb.walker.port::total         7981                       # Packet count per connected master and slave (bytes)
system.membus.pkt_count_system.cpu.dtb.walker.port::system.mem_cntrl.port        30823                       # Packet count per connected master and slave (bytes)
system.membus.pkt_count_system.cpu.dtb.walker.port::total        30823                       # Packet count per connected master and slave (bytes)
system.membus.pkt_count::total                  44703                       # Packet count per connected master and slave (bytes)
system.membus.pkt_size_system.apicbridge.master::system.cpu.interrupts.int_slave          468                       # Cumulative packet size per connected master and slave (bytes)
system.membus.pkt_size_system.apicbridge.master::total          468                       # Cumulative packet size per connected master and slave (bytes)
system.membus.pkt_size_system.l2cache.mem_side::system.bridge.slave          468                       # Cumulative packet size per connected master and slave (bytes)
system.membus.pkt_size_system.l2cache.mem_side::system.mem_cntrl.port       116672                       # Cumulative packet size per connected master and slave (bytes)
system.membus.pkt_size_system.l2cache.mem_side::system.cpu.interrupts.pio           32                       # Cumulative packet size per connected master and slave (bytes)
system.membus.pkt_size_system.l2cache.mem_side::total       117172                       # Cumulative packet size per connected master and slave (bytes)
system.membus.pkt_size_system.cpu.itb.walker.port::system.mem_cntrl.port          528                       # Cumulative packet size per connected master and slave (bytes)
system.membus.pkt_size_system.cpu.itb.walker.port::total          528                       # Cumulative packet size per connected master and slave (bytes)
system.membus.pkt_size_system.cpu.dtb.walker.port::system.mem_cntrl.port        25488                       # Cumulative packet size per connected master and slave (bytes)
system.membus.pkt_size_system.cpu.dtb.walker.port::total        25488                       # Cumulative packet size per connected master and slave (bytes)
system.membus.pkt_size::total                  143656                       # Cumulative packet size per connected master and slave (bytes)
system.membus.snoops                            32300                       # Total snoops (count)
system.membus.snoopTraffic                     258400                       # Total snoop traffic (bytes)
system.membus.snoop_fanout::samples             38457                       # Request fanout histogram
system.membus.snoop_fanout::mean             0.841225                       # Request fanout histogram
system.membus.snoop_fanout::stdev            0.365471                       # Request fanout histogram
system.membus.snoop_fanout::underflows              0      0.00%      0.00% # Request fanout histogram
system.membus.snoop_fanout::0                    6106     15.88%     15.88% # Request fanout histogram
system.membus.snoop_fanout::1                   32351     84.12%    100.00% # Request fanout histogram
system.membus.snoop_fanout::2                       0      0.00%    100.00% # Request fanout histogram
system.membus.snoop_fanout::overflows               0      0.00%    100.00% # Request fanout histogram
system.membus.snoop_fanout::min_value               0                       # Request fanout histogram
system.membus.snoop_fanout::max_value               1                       # Request fanout histogram
system.membus.snoop_fanout::total               38457                       # Request fanout histogram
system.membus.reqLayer0.occupancy              294500                       # Layer occupancy (ticks)
system.membus.reqLayer0.utilization               0.0                       # Layer utilization (%)
system.membus.reqLayer1.occupancy            20499997                       # Layer occupancy (ticks)
system.membus.reqLayer1.utilization               1.1                       # Layer utilization (%)
system.membus.reqLayer2.occupancy                8000                       # Layer occupancy (ticks)
system.membus.reqLayer2.utilization               0.0                       # Layer utilization (%)
system.membus.reqLayer3.occupancy              117000                       # Layer occupancy (ticks)
system.membus.reqLayer3.utilization               0.0                       # Layer utilization (%)
system.membus.respLayer1.occupancy              58500                       # Layer occupancy (ticks)
system.membus.respLayer1.utilization              0.0                       # Layer utilization (%)
system.membus.respLayer3.occupancy            3936000                       # Layer occupancy (ticks)
system.membus.respLayer3.utilization              0.2                       # Layer utilization (%)
system.membus.respLayer4.occupancy            8021060                       # Layer occupancy (ticks)
system.membus.respLayer4.utilization              0.4                       # Layer utilization (%)
system.membus.respLayer5.occupancy           28328936                       # Layer occupancy (ticks)
system.membus.respLayer5.utilization              1.5                       # Layer utilization (%)
system.membus.badaddr_responder.pwrStateResidencyTicks::UNDEFINED 4783828021000                       # Cumulative time (in ticks) in various power states
system.pc.behind_pci.pwrStateResidencyTicks::UNDEFINED 4783828021000                       # Cumulative time (in ticks) in various power states
system.pc.com_1.pwrStateResidencyTicks::UNDEFINED 4783828021000                       # Cumulative time (in ticks) in various power states
system.pc.fake_com_2.pwrStateResidencyTicks::UNDEFINED 4783828021000                       # Cumulative time (in ticks) in various power states
system.pc.fake_com_3.pwrStateResidencyTicks::UNDEFINED 4783828021000                       # Cumulative time (in ticks) in various power states
system.pc.fake_com_4.pwrStateResidencyTicks::UNDEFINED 4783828021000                       # Cumulative time (in ticks) in various power states
system.pc.fake_floppy.pwrStateResidencyTicks::UNDEFINED 4783828021000                       # Cumulative time (in ticks) in various power states
system.pc.i_dont_exist1.pwrStateResidencyTicks::UNDEFINED 4783828021000                       # Cumulative time (in ticks) in various power states
system.pc.i_dont_exist2.pwrStateResidencyTicks::UNDEFINED 4783828021000                       # Cumulative time (in ticks) in various power states
system.pc.pci_host.pwrStateResidencyTicks::UNDEFINED 4783828021000                       # Cumulative time (in ticks) in various power states
system.pc.south_bridge.cmos.pwrStateResidencyTicks::UNDEFINED 4783828021000                       # Cumulative time (in ticks) in various power states
system.pc.south_bridge.dma1.pwrStateResidencyTicks::UNDEFINED 4783828021000                       # Cumulative time (in ticks) in various power states
system.pc.south_bridge.pic2.pwrStateResidencyTicks::UNDEFINED 4783828021000                       # Cumulative time (in ticks) in various power states
system.pc.south_bridge.pic1.pwrStateResidencyTicks::UNDEFINED 4783828021000                       # Cumulative time (in ticks) in various power states
system.pc.south_bridge.io_apic.pwrStateResidencyTicks::UNDEFINED 4783828021000                       # Cumulative time (in ticks) in various power states
system.pc.south_bridge.keyboard.pwrStateResidencyTicks::UNDEFINED 4783828021000                       # Cumulative time (in ticks) in various power states
system.pc.south_bridge.pit.pwrStateResidencyTicks::UNDEFINED 4783828021000                       # Cumulative time (in ticks) in various power states
system.pc.south_bridge.speaker.pwrStateResidencyTicks::UNDEFINED 4783828021000                       # Cumulative time (in ticks) in various power states
system.pc.south_bridge.ide.disks.dma_read_full_pages            0                       # Number of full page size DMA reads (not PRD).
system.pc.south_bridge.ide.disks.dma_read_bytes            0                       # Number of bytes transfered via DMA reads (not PRD).
system.pc.south_bridge.ide.disks.dma_read_txs            0                       # Number of DMA read transactions (not PRD).
system.pc.south_bridge.ide.disks.dma_write_full_pages            0                       # Number of full page size DMA writes.
system.pc.south_bridge.ide.disks.dma_write_bytes            0                       # Number of bytes transfered via DMA writes.
system.pc.south_bridge.ide.disks.dma_write_txs            0                       # Number of DMA write transactions.
system.pc.south_bridge.ide.pwrStateResidencyTicks::UNDEFINED 4783828021000                       # Cumulative time (in ticks) in various power states
system.cpu.kern.inst.arm                            0                       # number of arm instructions executed
system.cpu.kern.inst.quiesce                        0                       # number of quiesce instructions executed

---------- End Simulation Statistics   ----------
