
---------- Begin Simulation Statistics ----------
sim_seconds                                  0.001242                       # Number of seconds simulated
sim_ticks                                  1241505500                       # Number of ticks simulated
final_tick                               4787253867000                       # Number of ticks from beginning of simulation (restored from checkpoints and never reset)
sim_freq                                 1000000000000                       # Frequency of simulated ticks
host_inst_rate                              140644475                       # Simulator instruction rate (inst/s)
host_op_rate                                328669215                       # Simulator op (including micro ops) rate (op/s)
host_tick_rate                              117564760                       # Simulator tick rate (ticks/s)
host_mem_usage                                1469052                       # Number of bytes of host memory used
host_seconds                                    10.56                       # Real time elapsed on the host
sim_insts                                  1485228743                       # Number of instructions simulated
sim_ops                                    3470804324                       # Number of ops (including micro ops) simulated
system.clk_domain.voltage_domain.voltage            1                       # Voltage in Volts
system.clk_domain.clock                           500                       # Clock period in ticks
system.mem_cntrl.pwrStateResidencyTicks::UNDEFINED 4787253867000                       # Cumulative time (in ticks) in various power states
system.mem_cntrl.bytes_read::cpu.dtb.walker        18384                       # Number of bytes read from this memory
system.mem_cntrl.bytes_read::cpu.itb.walker          344                       # Number of bytes read from this memory
system.mem_cntrl.bytes_read::cpu.inst           28864                       # Number of bytes read from this memory
system.mem_cntrl.bytes_read::cpu.data           46144                       # Number of bytes read from this memory
system.mem_cntrl.bytes_read::total              93736                       # Number of bytes read from this memory
system.mem_cntrl.bytes_inst_read::cpu.inst        28864                       # Number of instructions bytes read from this memory
system.mem_cntrl.bytes_inst_read::total         28864                       # Number of instructions bytes read from this memory
system.mem_cntrl.bytes_written::writebacks        29632                       # Number of bytes written to this memory
system.mem_cntrl.bytes_written::total           29632                       # Number of bytes written to this memory
system.mem_cntrl.num_reads::cpu.dtb.walker         2298                       # Number of read requests responded to by this memory
system.mem_cntrl.num_reads::cpu.itb.walker           43                       # Number of read requests responded to by this memory
system.mem_cntrl.num_reads::cpu.inst              451                       # Number of read requests responded to by this memory
system.mem_cntrl.num_reads::cpu.data              721                       # Number of read requests responded to by this memory
system.mem_cntrl.num_reads::total                3513                       # Number of read requests responded to by this memory
system.mem_cntrl.num_writes::writebacks           463                       # Number of write requests responded to by this memory
system.mem_cntrl.num_writes::total                463                       # Number of write requests responded to by this memory
system.mem_cntrl.bw_read::cpu.dtb.walker     14807828                       # Total read bandwidth from this memory (bytes/s)
system.mem_cntrl.bw_read::cpu.itb.walker       277083                       # Total read bandwidth from this memory (bytes/s)
system.mem_cntrl.bw_read::cpu.inst           23249192                       # Total read bandwidth from this memory (bytes/s)
system.mem_cntrl.bw_read::cpu.data           37167777                       # Total read bandwidth from this memory (bytes/s)
system.mem_cntrl.bw_read::total              75501881                       # Total read bandwidth from this memory (bytes/s)
system.mem_cntrl.bw_inst_read::cpu.inst      23249192                       # Instruction read bandwidth from this memory (bytes/s)
system.mem_cntrl.bw_inst_read::total         23249192                       # Instruction read bandwidth from this memory (bytes/s)
system.mem_cntrl.bw_write::writebacks        23867796                       # Write bandwidth from this memory (bytes/s)
system.mem_cntrl.bw_write::total             23867796                       # Write bandwidth from this memory (bytes/s)
system.mem_cntrl.bw_total::writebacks        23867796                       # Total bandwidth to/from this memory (bytes/s)
system.mem_cntrl.bw_total::cpu.dtb.walker     14807828                       # Total bandwidth to/from this memory (bytes/s)
system.mem_cntrl.bw_total::cpu.itb.walker       277083                       # Total bandwidth to/from this memory (bytes/s)
system.mem_cntrl.bw_total::cpu.inst          23249192                       # Total bandwidth to/from this memory (bytes/s)
system.mem_cntrl.bw_total::cpu.data          37167777                       # Total bandwidth to/from this memory (bytes/s)
system.mem_cntrl.bw_total::total             99369677                       # Total bandwidth to/from this memory (bytes/s)
system.mem_cntrl.readReqs                        3513                       # Number of read requests accepted
system.mem_cntrl.writeReqs                        463                       # Number of write requests accepted
system.mem_cntrl.readBursts                      3513                       # Number of DRAM read bursts, including those serviced by the write queue
system.mem_cntrl.writeBursts                      463                       # Number of DRAM write bursts, including those merged in the write queue
system.mem_cntrl.bytesReadDRAM                 224704                       # Total number of bytes read from DRAM
system.mem_cntrl.bytesReadWrQ                     128                       # Total number of bytes read from write queue
system.mem_cntrl.bytesWritten                   29696                       # Total number of bytes written to DRAM
system.mem_cntrl.bytesReadSys                   93736                       # Total read bytes from the system interface side
system.mem_cntrl.bytesWrittenSys                29632                       # Total written bytes from the system interface side
system.mem_cntrl.servicedByWrQ                      2                       # Number of DRAM read bursts serviced by the write queue
system.mem_cntrl.mergedWrBursts                     0                       # Number of DRAM write bursts merged with an existing one
system.mem_cntrl.neitherReadNorWriteReqs            0                       # Number of requests that are neither read nor write
system.mem_cntrl.perBankRdBursts::0                78                       # Per bank write bursts
system.mem_cntrl.perBankRdBursts::1                94                       # Per bank write bursts
system.mem_cntrl.perBankRdBursts::2                25                       # Per bank write bursts
system.mem_cntrl.perBankRdBursts::3               154                       # Per bank write bursts
system.mem_cntrl.perBankRdBursts::4               309                       # Per bank write bursts
system.mem_cntrl.perBankRdBursts::5               288                       # Per bank write bursts
system.mem_cntrl.perBankRdBursts::6               847                       # Per bank write bursts
system.mem_cntrl.perBankRdBursts::7               171                       # Per bank write bursts
system.mem_cntrl.perBankRdBursts::8               756                       # Per bank write bursts
system.mem_cntrl.perBankRdBursts::9               151                       # Per bank write bursts
system.mem_cntrl.perBankRdBursts::10              226                       # Per bank write bursts
system.mem_cntrl.perBankRdBursts::11              101                       # Per bank write bursts
system.mem_cntrl.perBankRdBursts::12               35                       # Per bank write bursts
system.mem_cntrl.perBankRdBursts::13               72                       # Per bank write bursts
system.mem_cntrl.perBankRdBursts::14              123                       # Per bank write bursts
system.mem_cntrl.perBankRdBursts::15               81                       # Per bank write bursts
system.mem_cntrl.perBankWrBursts::0                37                       # Per bank write bursts
system.mem_cntrl.perBankWrBursts::1                44                       # Per bank write bursts
system.mem_cntrl.perBankWrBursts::2                13                       # Per bank write bursts
system.mem_cntrl.perBankWrBursts::3                15                       # Per bank write bursts
system.mem_cntrl.perBankWrBursts::4                12                       # Per bank write bursts
system.mem_cntrl.perBankWrBursts::5                10                       # Per bank write bursts
system.mem_cntrl.perBankWrBursts::6                15                       # Per bank write bursts
system.mem_cntrl.perBankWrBursts::7                16                       # Per bank write bursts
system.mem_cntrl.perBankWrBursts::8                33                       # Per bank write bursts
system.mem_cntrl.perBankWrBursts::9                69                       # Per bank write bursts
system.mem_cntrl.perBankWrBursts::10               52                       # Per bank write bursts
system.mem_cntrl.perBankWrBursts::11               14                       # Per bank write bursts
system.mem_cntrl.perBankWrBursts::12               15                       # Per bank write bursts
system.mem_cntrl.perBankWrBursts::13               32                       # Per bank write bursts
system.mem_cntrl.perBankWrBursts::14               36                       # Per bank write bursts
system.mem_cntrl.perBankWrBursts::15               51                       # Per bank write bursts
system.mem_cntrl.numRdRetry                         0                       # Number of times read queue was full causing retry
system.mem_cntrl.numWrRetry                         0                       # Number of times write queue was full causing retry
system.mem_cntrl.totGap                    1239476500                       # Total gap between requests
system.mem_cntrl.readPktSize::0                     0                       # Read request sizes (log2)
system.mem_cntrl.readPktSize::1                     0                       # Read request sizes (log2)
system.mem_cntrl.readPktSize::2                     0                       # Read request sizes (log2)
system.mem_cntrl.readPktSize::3                  2341                       # Read request sizes (log2)
system.mem_cntrl.readPktSize::4                     0                       # Read request sizes (log2)
system.mem_cntrl.readPktSize::5                     0                       # Read request sizes (log2)
system.mem_cntrl.readPktSize::6                  1172                       # Read request sizes (log2)
system.mem_cntrl.writePktSize::0                    0                       # Write request sizes (log2)
system.mem_cntrl.writePktSize::1                    0                       # Write request sizes (log2)
system.mem_cntrl.writePktSize::2                    0                       # Write request sizes (log2)
system.mem_cntrl.writePktSize::3                    0                       # Write request sizes (log2)
system.mem_cntrl.writePktSize::4                    0                       # Write request sizes (log2)
system.mem_cntrl.writePktSize::5                    0                       # Write request sizes (log2)
system.mem_cntrl.writePktSize::6                  463                       # Write request sizes (log2)
system.mem_cntrl.rdQLenPdf::0                    3313                       # What read queue length does an incoming req see
system.mem_cntrl.rdQLenPdf::1                     178                       # What read queue length does an incoming req see
system.mem_cntrl.rdQLenPdf::2                      17                       # What read queue length does an incoming req see
system.mem_cntrl.rdQLenPdf::3                       2                       # What read queue length does an incoming req see
system.mem_cntrl.rdQLenPdf::4                       1                       # What read queue length does an incoming req see
system.mem_cntrl.rdQLenPdf::5                       0                       # What read queue length does an incoming req see
system.mem_cntrl.rdQLenPdf::6                       0                       # What read queue length does an incoming req see
system.mem_cntrl.rdQLenPdf::7                       0                       # What read queue length does an incoming req see
system.mem_cntrl.rdQLenPdf::8                       0                       # What read queue length does an incoming req see
system.mem_cntrl.rdQLenPdf::9                       0                       # What read queue length does an incoming req see
system.mem_cntrl.rdQLenPdf::10                      0                       # What read queue length does an incoming req see
system.mem_cntrl.rdQLenPdf::11                      0                       # What read queue length does an incoming req see
system.mem_cntrl.rdQLenPdf::12                      0                       # What read queue length does an incoming req see
system.mem_cntrl.rdQLenPdf::13                      0                       # What read queue length does an incoming req see
system.mem_cntrl.rdQLenPdf::14                      0                       # What read queue length does an incoming req see
system.mem_cntrl.rdQLenPdf::15                      0                       # What read queue length does an incoming req see
system.mem_cntrl.rdQLenPdf::16                      0                       # What read queue length does an incoming req see
system.mem_cntrl.rdQLenPdf::17                      0                       # What read queue length does an incoming req see
system.mem_cntrl.rdQLenPdf::18                      0                       # What read queue length does an incoming req see
system.mem_cntrl.rdQLenPdf::19                      0                       # What read queue length does an incoming req see
system.mem_cntrl.rdQLenPdf::20                      0                       # What read queue length does an incoming req see
system.mem_cntrl.rdQLenPdf::21                      0                       # What read queue length does an incoming req see
system.mem_cntrl.rdQLenPdf::22                      0                       # What read queue length does an incoming req see
system.mem_cntrl.rdQLenPdf::23                      0                       # What read queue length does an incoming req see
system.mem_cntrl.rdQLenPdf::24                      0                       # What read queue length does an incoming req see
system.mem_cntrl.rdQLenPdf::25                      0                       # What read queue length does an incoming req see
system.mem_cntrl.rdQLenPdf::26                      0                       # What read queue length does an incoming req see
system.mem_cntrl.rdQLenPdf::27                      0                       # What read queue length does an incoming req see
system.mem_cntrl.rdQLenPdf::28                      0                       # What read queue length does an incoming req see
system.mem_cntrl.rdQLenPdf::29                      0                       # What read queue length does an incoming req see
system.mem_cntrl.rdQLenPdf::30                      0                       # What read queue length does an incoming req see
system.mem_cntrl.rdQLenPdf::31                      0                       # What read queue length does an incoming req see
system.mem_cntrl.wrQLenPdf::0                       0                       # What write queue length does an incoming req see
system.mem_cntrl.wrQLenPdf::1                       0                       # What write queue length does an incoming req see
system.mem_cntrl.wrQLenPdf::2                       0                       # What write queue length does an incoming req see
system.mem_cntrl.wrQLenPdf::3                       0                       # What write queue length does an incoming req see
system.mem_cntrl.wrQLenPdf::4                       0                       # What write queue length does an incoming req see
system.mem_cntrl.wrQLenPdf::5                       0                       # What write queue length does an incoming req see
system.mem_cntrl.wrQLenPdf::6                       0                       # What write queue length does an incoming req see
system.mem_cntrl.wrQLenPdf::7                       0                       # What write queue length does an incoming req see
system.mem_cntrl.wrQLenPdf::8                       0                       # What write queue length does an incoming req see
system.mem_cntrl.wrQLenPdf::9                       0                       # What write queue length does an incoming req see
system.mem_cntrl.wrQLenPdf::10                      0                       # What write queue length does an incoming req see
system.mem_cntrl.wrQLenPdf::11                      0                       # What write queue length does an incoming req see
system.mem_cntrl.wrQLenPdf::12                      0                       # What write queue length does an incoming req see
system.mem_cntrl.wrQLenPdf::13                      0                       # What write queue length does an incoming req see
system.mem_cntrl.wrQLenPdf::14                      0                       # What write queue length does an incoming req see
system.mem_cntrl.wrQLenPdf::15                      8                       # What write queue length does an incoming req see
system.mem_cntrl.wrQLenPdf::16                      8                       # What write queue length does an incoming req see
system.mem_cntrl.wrQLenPdf::17                     24                       # What write queue length does an incoming req see
system.mem_cntrl.wrQLenPdf::18                     28                       # What write queue length does an incoming req see
system.mem_cntrl.wrQLenPdf::19                     28                       # What write queue length does an incoming req see
system.mem_cntrl.wrQLenPdf::20                     28                       # What write queue length does an incoming req see
system.mem_cntrl.wrQLenPdf::21                     28                       # What write queue length does an incoming req see
system.mem_cntrl.wrQLenPdf::22                     28                       # What write queue length does an incoming req see
system.mem_cntrl.wrQLenPdf::23                     28                       # What write queue length does an incoming req see
system.mem_cntrl.wrQLenPdf::24                     28                       # What write queue length does an incoming req see
system.mem_cntrl.wrQLenPdf::25                     28                       # What write queue length does an incoming req see
system.mem_cntrl.wrQLenPdf::26                     28                       # What write queue length does an incoming req see
system.mem_cntrl.wrQLenPdf::27                     28                       # What write queue length does an incoming req see
system.mem_cntrl.wrQLenPdf::28                     28                       # What write queue length does an incoming req see
system.mem_cntrl.wrQLenPdf::29                     28                       # What write queue length does an incoming req see
system.mem_cntrl.wrQLenPdf::30                     30                       # What write queue length does an incoming req see
system.mem_cntrl.wrQLenPdf::31                     28                       # What write queue length does an incoming req see
system.mem_cntrl.wrQLenPdf::32                     28                       # What write queue length does an incoming req see
system.mem_cntrl.wrQLenPdf::33                      1                       # What write queue length does an incoming req see
system.mem_cntrl.wrQLenPdf::34                      0                       # What write queue length does an incoming req see
system.mem_cntrl.wrQLenPdf::35                      0                       # What write queue length does an incoming req see
system.mem_cntrl.wrQLenPdf::36                      0                       # What write queue length does an incoming req see
system.mem_cntrl.wrQLenPdf::37                      0                       # What write queue length does an incoming req see
system.mem_cntrl.wrQLenPdf::38                      0                       # What write queue length does an incoming req see
system.mem_cntrl.wrQLenPdf::39                      0                       # What write queue length does an incoming req see
system.mem_cntrl.wrQLenPdf::40                      0                       # What write queue length does an incoming req see
system.mem_cntrl.wrQLenPdf::41                      0                       # What write queue length does an incoming req see
system.mem_cntrl.wrQLenPdf::42                      0                       # What write queue length does an incoming req see
system.mem_cntrl.wrQLenPdf::43                      0                       # What write queue length does an incoming req see
system.mem_cntrl.wrQLenPdf::44                      0                       # What write queue length does an incoming req see
system.mem_cntrl.wrQLenPdf::45                      0                       # What write queue length does an incoming req see
system.mem_cntrl.wrQLenPdf::46                      0                       # What write queue length does an incoming req see
system.mem_cntrl.wrQLenPdf::47                      0                       # What write queue length does an incoming req see
system.mem_cntrl.wrQLenPdf::48                      0                       # What write queue length does an incoming req see
system.mem_cntrl.wrQLenPdf::49                      0                       # What write queue length does an incoming req see
system.mem_cntrl.wrQLenPdf::50                      0                       # What write queue length does an incoming req see
system.mem_cntrl.wrQLenPdf::51                      0                       # What write queue length does an incoming req see
system.mem_cntrl.wrQLenPdf::52                      0                       # What write queue length does an incoming req see
system.mem_cntrl.wrQLenPdf::53                      0                       # What write queue length does an incoming req see
system.mem_cntrl.wrQLenPdf::54                      0                       # What write queue length does an incoming req see
system.mem_cntrl.wrQLenPdf::55                      0                       # What write queue length does an incoming req see
system.mem_cntrl.wrQLenPdf::56                      0                       # What write queue length does an incoming req see
system.mem_cntrl.wrQLenPdf::57                      0                       # What write queue length does an incoming req see
system.mem_cntrl.wrQLenPdf::58                      0                       # What write queue length does an incoming req see
system.mem_cntrl.wrQLenPdf::59                      0                       # What write queue length does an incoming req see
system.mem_cntrl.wrQLenPdf::60                      0                       # What write queue length does an incoming req see
system.mem_cntrl.wrQLenPdf::61                      0                       # What write queue length does an incoming req see
system.mem_cntrl.wrQLenPdf::62                      0                       # What write queue length does an incoming req see
system.mem_cntrl.wrQLenPdf::63                      0                       # What write queue length does an incoming req see
system.mem_cntrl.bytesPerActivate::samples         1083                       # Bytes accessed per row activation
system.mem_cntrl.bytesPerActivate::mean    234.666667                       # Bytes accessed per row activation
system.mem_cntrl.bytesPerActivate::gmean   140.739938                       # Bytes accessed per row activation
system.mem_cntrl.bytesPerActivate::stdev   281.742103                       # Bytes accessed per row activation
system.mem_cntrl.bytesPerActivate::0-127          521     48.11%     48.11% # Bytes accessed per row activation
system.mem_cntrl.bytesPerActivate::128-255          264     24.38%     72.48% # Bytes accessed per row activation
system.mem_cntrl.bytesPerActivate::256-383           91      8.40%     80.89% # Bytes accessed per row activation
system.mem_cntrl.bytesPerActivate::384-511           50      4.62%     85.50% # Bytes accessed per row activation
system.mem_cntrl.bytesPerActivate::512-639           30      2.77%     88.27% # Bytes accessed per row activation
system.mem_cntrl.bytesPerActivate::640-767           19      1.75%     90.03% # Bytes accessed per row activation
system.mem_cntrl.bytesPerActivate::768-895           16      1.48%     91.51% # Bytes accessed per row activation
system.mem_cntrl.bytesPerActivate::896-1023           14      1.29%     92.80% # Bytes accessed per row activation
system.mem_cntrl.bytesPerActivate::1024-1151           78      7.20%    100.00% # Bytes accessed per row activation
system.mem_cntrl.bytesPerActivate::total         1083                       # Bytes accessed per row activation
system.mem_cntrl.rdPerTurnAround::samples           28                       # Reads before turning the bus around for writes
system.mem_cntrl.rdPerTurnAround::mean     121.392857                       # Reads before turning the bus around for writes
system.mem_cntrl.rdPerTurnAround::gmean     84.354637                       # Reads before turning the bus around for writes
system.mem_cntrl.rdPerTurnAround::stdev    114.267503                       # Reads before turning the bus around for writes
system.mem_cntrl.rdPerTurnAround::32-47            11     39.29%     39.29% # Reads before turning the bus around for writes
system.mem_cntrl.rdPerTurnAround::48-63             4     14.29%     53.57% # Reads before turning the bus around for writes
system.mem_cntrl.rdPerTurnAround::64-79             2      7.14%     60.71% # Reads before turning the bus around for writes
system.mem_cntrl.rdPerTurnAround::80-95             1      3.57%     64.29% # Reads before turning the bus around for writes
system.mem_cntrl.rdPerTurnAround::96-111            1      3.57%     67.86% # Reads before turning the bus around for writes
system.mem_cntrl.rdPerTurnAround::112-127            1      3.57%     71.43% # Reads before turning the bus around for writes
system.mem_cntrl.rdPerTurnAround::160-175            1      3.57%     75.00% # Reads before turning the bus around for writes
system.mem_cntrl.rdPerTurnAround::176-191            1      3.57%     78.57% # Reads before turning the bus around for writes
system.mem_cntrl.rdPerTurnAround::224-239            1      3.57%     82.14% # Reads before turning the bus around for writes
system.mem_cntrl.rdPerTurnAround::272-287            1      3.57%     85.71% # Reads before turning the bus around for writes
system.mem_cntrl.rdPerTurnAround::320-335            2      7.14%     92.86% # Reads before turning the bus around for writes
system.mem_cntrl.rdPerTurnAround::368-383            1      3.57%     96.43% # Reads before turning the bus around for writes
system.mem_cntrl.rdPerTurnAround::384-399            1      3.57%    100.00% # Reads before turning the bus around for writes
system.mem_cntrl.rdPerTurnAround::total            28                       # Reads before turning the bus around for writes
system.mem_cntrl.wrPerTurnAround::samples           28                       # Writes before turning the bus around for reads
system.mem_cntrl.wrPerTurnAround::mean      16.571429                       # Writes before turning the bus around for reads
system.mem_cntrl.wrPerTurnAround::gmean     16.547599                       # Writes before turning the bus around for reads
system.mem_cntrl.wrPerTurnAround::stdev      0.920087                       # Writes before turning the bus around for reads
system.mem_cntrl.wrPerTurnAround::16               20     71.43%     71.43% # Writes before turning the bus around for reads
system.mem_cntrl.wrPerTurnAround::18                8     28.57%    100.00% # Writes before turning the bus around for reads
system.mem_cntrl.wrPerTurnAround::total            28                       # Writes before turning the bus around for reads
system.mem_cntrl.totQLat                     64826250                       # Total ticks spent queuing
system.mem_cntrl.totMemAccLat               130657500                       # Total ticks spent from burst creation until serviced by the DRAM
system.mem_cntrl.totBusLat                   17555000                       # Total ticks spent in databus transfers
system.mem_cntrl.avgQLat                     18463.76                       # Average queueing delay per DRAM burst
system.mem_cntrl.avgBusLat                    5000.00                       # Average bus latency per DRAM burst
system.mem_cntrl.avgMemAccLat                37213.76                       # Average memory access latency per DRAM burst
system.mem_cntrl.avgRdBW                       180.99                       # Average DRAM read bandwidth in MiByte/s
system.mem_cntrl.avgWrBW                        23.92                       # Average achieved write bandwidth in MiByte/s
system.mem_cntrl.avgRdBWSys                     75.50                       # Average system read bandwidth in MiByte/s
system.mem_cntrl.avgWrBWSys                     23.87                       # Average system write bandwidth in MiByte/s
system.mem_cntrl.peakBW                      12800.00                       # Theoretical peak bandwidth in MiByte/s
system.mem_cntrl.busUtil                         1.60                       # Data bus utilization in percentage
system.mem_cntrl.busUtilRead                     1.41                       # Data bus utilization in percentage for reads
system.mem_cntrl.busUtilWrite                    0.19                       # Data bus utilization in percentage for writes
system.mem_cntrl.avgRdQLen                       1.14                       # Average read queue length when enqueuing
system.mem_cntrl.avgWrQLen                      24.83                       # Average write queue length when enqueuing
system.mem_cntrl.readRowHits                     2674                       # Number of row buffer hits during reads
system.mem_cntrl.writeRowHits                     218                       # Number of row buffer hits during writes
system.mem_cntrl.readRowHitRate                 76.16                       # Row buffer hit rate for reads
system.mem_cntrl.writeRowHitRate                47.08                       # Row buffer hit rate for writes
system.mem_cntrl.avgGap                     311739.56                       # Average gap between requests
system.mem_cntrl.pageHitRate                    72.77                       # Row buffer hit rate, read and write combined
system.mem_cntrl_0.actEnergy                  4433940                       # Energy for activate commands per rank (pJ)
system.mem_cntrl_0.preEnergy                  2341515                       # Energy for precharge commands per rank (pJ)
system.mem_cntrl_0.readEnergy                14051520                       # Energy for read commands per rank (pJ)
system.mem_cntrl_0.writeEnergy                 845640                       # Energy for write commands per rank (pJ)
system.mem_cntrl_0.refreshEnergy         92810640.000000                       # Energy for refresh commands per rank (pJ)
system.mem_cntrl_0.actBackEnergy             49687470                       # Energy for active background per rank (pJ)
system.mem_cntrl_0.preBackEnergy              2974080                       # Energy for precharge background per rank (pJ)
system.mem_cntrl_0.actPowerDownEnergy       318326760                       # Energy for active power-down per rank (pJ)
system.mem_cntrl_0.prePowerDownEnergy       109897440                       # Energy for precharge power-down per rank (pJ)
system.mem_cntrl_0.selfRefreshEnergy         40478940                       # Energy for self refresh per rank (pJ)
system.mem_cntrl_0.totalEnergy              635847945                       # Total energy per rank (pJ)
system.mem_cntrl_0.averagePower            512.158782                       # Core power per rank (mW)
system.mem_cntrl_0.totalIdleTime           1124601000                       # Total Idle time Per DRAM Rank
system.mem_cntrl_0.memoryStateTime::IDLE      3690000                       # Time in different power states
system.mem_cntrl_0.memoryStateTime::REF      39326000                       # Time in different power states
system.mem_cntrl_0.memoryStateTime::SREF    143349000                       # Time in different power states
system.mem_cntrl_0.memoryStateTime::PRE_PDN    285500000                       # Time in different power states
system.mem_cntrl_0.memoryStateTime::ACT      73694750                       # Time in different power states
system.mem_cntrl_0.memoryStateTime::ACT_PDN    698015750                       # Time in different power states
system.mem_cntrl_1.actEnergy                  3334380                       # Energy for activate commands per rank (pJ)
system.mem_cntrl_1.preEnergy                  1772265                       # Energy for precharge commands per rank (pJ)
system.mem_cntrl_1.readEnergy                11074140                       # Energy for read commands per rank (pJ)
system.mem_cntrl_1.writeEnergy                1576440                       # Energy for write commands per rank (pJ)
system.mem_cntrl_1.refreshEnergy         90352080.000000                       # Energy for refresh commands per rank (pJ)
system.mem_cntrl_1.actBackEnergy             44080380                       # Energy for active background per rank (pJ)
system.mem_cntrl_1.preBackEnergy              3577440                       # Energy for precharge background per rank (pJ)
system.mem_cntrl_1.actPowerDownEnergy       301947240                       # Energy for active power-down per rank (pJ)
system.mem_cntrl_1.prePowerDownEnergy        97899360                       # Energy for precharge power-down per rank (pJ)
system.mem_cntrl_1.selfRefreshEnergy         63114780                       # Energy for self refresh per rank (pJ)
system.mem_cntrl_1.totalEnergy              618728505                       # Total energy per rank (pJ)
system.mem_cntrl_1.averagePower            498.369524                       # Core power per rank (mW)
system.mem_cntrl_1.totalIdleTime           1134187250                       # Total Idle time Per DRAM Rank
system.mem_cntrl_1.memoryStateTime::IDLE      5244000                       # Time in different power states
system.mem_cntrl_1.memoryStateTime::REF      38334000                       # Time in different power states
system.mem_cntrl_1.memoryStateTime::SREF    223861750                       # Time in different power states
system.mem_cntrl_1.memoryStateTime::PRE_PDN    254945500                       # Time in different power states
system.mem_cntrl_1.memoryStateTime::ACT      62205250                       # Time in different power states
system.mem_cntrl_1.memoryStateTime::ACT_PDN    657149750                       # Time in different power states
system.pwrStateResidencyTicks::UNDEFINED 4787253867000                       # Cumulative time (in ticks) in various power states
system.apicbridge.pwrStateResidencyTicks::UNDEFINED 4787253867000                       # Cumulative time (in ticks) in various power states
system.bridge.pwrStateResidencyTicks::UNDEFINED 4787253867000                       # Cumulative time (in ticks) in various power states
system.cpu.branchPred.lookups                  438022                       # Number of BP lookups
system.cpu.branchPred.condPredicted            438022                       # Number of conditional branches predicted
system.cpu.branchPred.condIncorrect             51353                       # Number of conditional branches incorrect
system.cpu.branchPred.BTBLookups               341434                       # Number of BTB lookups
system.cpu.branchPred.BTBHits                       0                       # Number of BTB hits
system.cpu.branchPred.BTBCorrect                    0                       # Number of correct BTB predictions (this stat may not work properly.
system.cpu.branchPred.BTBHitPct              0.000000                       # BTB Hit Percentage
system.cpu.branchPred.usedRAS                   44796                       # Number of times the RAS was used to get a target.
system.cpu.branchPred.RASInCorrect              10768                       # Number of incorrect RAS predictions.
system.cpu.branchPred.correctpredictionPercent    88.276160                       # Correct prediction percentage
system.cpu.branchPred.indirectLookups          341434                       # Number of indirect predictor lookups.
system.cpu.branchPred.indirectHits              88950                       # Number of indirect target hits.
system.cpu.branchPred.indirectMisses           252484                       # Number of indirect misses.
system.cpu.branchPredindirectMispredicted        36269                       # Number of mispredicted indirect branches.
system.cpu.dtb.walker.pwrStateResidencyTicks::UNDEFINED 4787253867000                       # Cumulative time (in ticks) in various power states
system.cpu.dtb.rdAccesses                      356369                       # TLB accesses on read requests
system.cpu.dtb.wrAccesses                      227137                       # TLB accesses on write requests
system.cpu.dtb.rdMisses                          8998                       # TLB misses on read requests
system.cpu.dtb.wrMisses                          1969                       # TLB misses on write requests
system.cpu.apic_clk_domain.clock                 8000                       # Clock period in ticks
system.cpu.interrupts.pwrStateResidencyTicks::UNDEFINED 4787253867000                       # Cumulative time (in ticks) in various power states
system.cpu.itb.walker.pwrStateResidencyTicks::UNDEFINED 4787253867000                       # Cumulative time (in ticks) in various power states
system.cpu.itb.rdAccesses                           0                       # TLB accesses on read requests
system.cpu.itb.wrAccesses                      278787                       # TLB accesses on write requests
system.cpu.itb.rdMisses                             0                       # TLB misses on read requests
system.cpu.itb.wrMisses                          1355                       # TLB misses on write requests
system.cpu.pwrStateResidencyTicks::ON      2481878500                       # Cumulative time (in ticks) in various power states
system.cpu.numCycles                          2483011                       # number of cpu cycles simulated
system.cpu.numWorkItemsStarted                      0                       # number of work items this cpu started
system.cpu.numWorkItemsCompleted                    0                       # number of work items this cpu completed
system.cpu.fetch.icacheStallCycles             570044                       # Number of cycles fetch is stalled on an Icache miss
system.cpu.fetch.Insts                        2010927                       # Number of instructions fetch has processed
system.cpu.fetch.Branches                      438022                       # Number of branches that fetch encountered
system.cpu.fetch.predictedBranches             133746                       # Number of branches that fetch has predicted taken
system.cpu.fetch.Cycles                       1627373                       # Number of cycles fetch has run and was not squashing or blocked
system.cpu.fetch.SquashCycles                  112012                       # Number of cycles fetch has spent squashing
system.cpu.fetch.TlbCycles                      48327                       # Number of cycles fetch has spent waiting for tlb
system.cpu.fetch.MiscStallCycles                 1823                       # Number of cycles fetch has spent waiting on interrupts, or bad addresses, or out of MSHRs
system.cpu.fetch.PendingTrapStallCycles         42296                       # Number of stall cycles due to pending traps
system.cpu.fetch.PendingQuiesceStallCycles           22                       # Number of stall cycles due to pending quiesce instructions
system.cpu.fetch.IcacheWaitRetryStallCycles            5                       # Number of stall cycles due to full MSHR
system.cpu.fetch.CacheLines                    272850                       # Number of cache lines fetched
system.cpu.fetch.IcacheSquashes                 20205                       # Number of outstanding Icache misses that were squashed
system.cpu.fetch.ItlbSquashes                     645                       # Number of outstanding ITLB misses that were squashed
system.cpu.fetch.rateDist::samples            2345896                       # Number of instructions fetched each cycle (Total)
system.cpu.fetch.rateDist::mean              1.676561                       # Number of instructions fetched each cycle (Total)
system.cpu.fetch.rateDist::stdev             3.056345                       # Number of instructions fetched each cycle (Total)
system.cpu.fetch.rateDist::underflows               0      0.00%      0.00% # Number of instructions fetched each cycle (Total)
system.cpu.fetch.rateDist::0                  1716646     73.18%     73.18% # Number of instructions fetched each cycle (Total)
system.cpu.fetch.rateDist::1                    57676      2.46%     75.64% # Number of instructions fetched each cycle (Total)
system.cpu.fetch.rateDist::2                    30204      1.29%     76.92% # Number of instructions fetched each cycle (Total)
system.cpu.fetch.rateDist::3                    36797      1.57%     78.49% # Number of instructions fetched each cycle (Total)
system.cpu.fetch.rateDist::4                    35973      1.53%     80.02% # Number of instructions fetched each cycle (Total)
system.cpu.fetch.rateDist::5                    31922      1.36%     81.39% # Number of instructions fetched each cycle (Total)
system.cpu.fetch.rateDist::6                    31167      1.33%     82.71% # Number of instructions fetched each cycle (Total)
system.cpu.fetch.rateDist::7                    30030      1.28%     83.99% # Number of instructions fetched each cycle (Total)
system.cpu.fetch.rateDist::8                   375481     16.01%    100.00% # Number of instructions fetched each cycle (Total)
system.cpu.fetch.rateDist::overflows                0      0.00%    100.00% # Number of instructions fetched each cycle (Total)
system.cpu.fetch.rateDist::min_value                0                       # Number of instructions fetched each cycle (Total)
system.cpu.fetch.rateDist::max_value                8                       # Number of instructions fetched each cycle (Total)
system.cpu.fetch.rateDist::total              2345896                       # Number of instructions fetched each cycle (Total)
system.cpu.fetch.branchRate                  0.176408                       # Number of branch fetches per cycle
system.cpu.fetch.rate                        0.809874                       # Number of inst fetches per cycle
system.cpu.decode.IdleCycles                   539374                       # Number of cycles decode is idle
system.cpu.decode.BlockedCycles               1231796                       # Number of cycles decode is blocked
system.cpu.decode.RunCycles                    453366                       # Number of cycles decode is running
system.cpu.decode.UnblockCycles                 65354                       # Number of cycles decode is unblocking
system.cpu.decode.SquashCycles                  56006                       # Number of cycles decode is squashing
system.cpu.decode.DecodedInsts                3530309                       # Number of instructions handled by decode
system.cpu.rename.SquashCycles                  56006                       # Number of cycles rename is squashing
system.cpu.rename.IdleCycles                   581970                       # Number of cycles rename is idle
system.cpu.rename.BlockCycles                  615093                       # Number of cycles rename is blocking
system.cpu.rename.serializeStallCycles         310371                       # count of cycles rename stalled for serializing inst
system.cpu.rename.RunCycles                    472297                       # Number of cycles rename is running
system.cpu.rename.UnblockCycles                310159                       # Number of cycles rename is unblocking
system.cpu.rename.RenamedInsts                3306578                       # Number of instructions processed by rename
system.cpu.rename.ROBFullEvents                  3236                       # Number of times rename has blocked due to ROB full
system.cpu.rename.IQFullEvents                  23680                       # Number of times rename has blocked due to IQ full
system.cpu.rename.LQFullEvents                  28411                       # Number of times rename has blocked due to LQ full
system.cpu.rename.SQFullEvents                 238402                       # Number of times rename has blocked due to SQ full
system.cpu.rename.RenamedOperands             3623608                       # Number of destination operands rename has renamed
system.cpu.rename.RenameLookups               8280738                       # Number of register rename lookups that rename has made
system.cpu.rename.int_rename_lookups          5099833                       # Number of integer rename lookups
system.cpu.rename.fp_rename_lookups             13321                       # Number of floating rename lookups
system.cpu.rename.CommittedMaps               1981783                       # Number of HB maps that are committed
system.cpu.rename.UndoneMaps                  1641825                       # Number of HB maps that are undone due to squashing
system.cpu.rename.serializingInsts              14234                       # count of serializing insts renamed
system.cpu.rename.tempSerializingInsts          14259                       # count of temporary serializing insts renamed
system.cpu.rename.skidInsts                    275586                       # count of insts added to the skid buffer
system.cpu.memDep0.insertedLoads               428782                       # Number of loads inserted to the mem dependence unit.
system.cpu.memDep0.insertedStores              278035                       # Number of stores inserted to the mem dependence unit.
system.cpu.memDep0.conflictingLoads             33236                       # Number of conflicting loads.
system.cpu.memDep0.conflictingStores            31008                       # Number of conflicting stores.
system.cpu.iq.iqInstsAdded                    2928985                       # Number of instructions added to the IQ (excludes non-spec)
system.cpu.iq.iqNonSpecInstsAdded               17132                       # Number of non-speculative instructions added to the IQ
system.cpu.iq.iqInstsIssued                   2543370                       # Number of instructions issued
system.cpu.iq.iqSquashedInstsIssued             20473                       # Number of squashed instructions issued
system.cpu.iq.iqSquashedInstsExamined         1171206                       # Number of squashed instructions iterated over during squash; mainly for profiling
system.cpu.iq.iqSquashedOperandsExamined      1696892                       # Number of squashed operands that are examined and possibly removed from graph
system.cpu.iq.iqSquashedNonSpecRemoved           5425                       # Number of squashed non-spec instructions that were removed
system.cpu.iq.issued_per_cycle::samples       2345896                       # Number of insts issued each cycle
system.cpu.iq.issued_per_cycle::mean         1.084178                       # Number of insts issued each cycle
system.cpu.iq.issued_per_cycle::stdev        1.978799                       # Number of insts issued each cycle
system.cpu.iq.issued_per_cycle::underflows            0      0.00%      0.00% # Number of insts issued each cycle
system.cpu.iq.issued_per_cycle::0             1596914     68.07%     68.07% # Number of insts issued each cycle
system.cpu.iq.issued_per_cycle::1              193583      8.25%     76.32% # Number of insts issued each cycle
system.cpu.iq.issued_per_cycle::2              126800      5.41%     81.73% # Number of insts issued each cycle
system.cpu.iq.issued_per_cycle::3              101221      4.31%     86.04% # Number of insts issued each cycle
system.cpu.iq.issued_per_cycle::4               92919      3.96%     90.01% # Number of insts issued each cycle
system.cpu.iq.issued_per_cycle::5               84530      3.60%     93.61% # Number of insts issued each cycle
system.cpu.iq.issued_per_cycle::6               77243      3.29%     96.90% # Number of insts issued each cycle
system.cpu.iq.issued_per_cycle::7               46748      1.99%     98.89% # Number of insts issued each cycle
system.cpu.iq.issued_per_cycle::8               25938      1.11%    100.00% # Number of insts issued each cycle
system.cpu.iq.issued_per_cycle::overflows            0      0.00%    100.00% # Number of insts issued each cycle
system.cpu.iq.issued_per_cycle::min_value            0                       # Number of insts issued each cycle
system.cpu.iq.issued_per_cycle::max_value            8                       # Number of insts issued each cycle
system.cpu.iq.issued_per_cycle::total         2345896                       # Number of insts issued each cycle
system.cpu.iq.fu_full::No_OpClass                   0      0.00%      0.00% # attempts to use FU when none available
system.cpu.iq.fu_full::IntAlu                   25367     67.32%     67.32% # attempts to use FU when none available
system.cpu.iq.fu_full::IntMult                      0      0.00%     67.32% # attempts to use FU when none available
system.cpu.iq.fu_full::IntDiv                       0      0.00%     67.32% # attempts to use FU when none available
system.cpu.iq.fu_full::FloatAdd                    62      0.16%     67.49% # attempts to use FU when none available
system.cpu.iq.fu_full::FloatCmp                     0      0.00%     67.49% # attempts to use FU when none available
system.cpu.iq.fu_full::FloatCvt                     0      0.00%     67.49% # attempts to use FU when none available
system.cpu.iq.fu_full::FloatMult                    0      0.00%     67.49% # attempts to use FU when none available
system.cpu.iq.fu_full::FloatMultAcc                 0      0.00%     67.49% # attempts to use FU when none available
system.cpu.iq.fu_full::FloatDiv                     0      0.00%     67.49% # attempts to use FU when none available
system.cpu.iq.fu_full::FloatMisc                    0      0.00%     67.49% # attempts to use FU when none available
system.cpu.iq.fu_full::FloatSqrt                    0      0.00%     67.49% # attempts to use FU when none available
system.cpu.iq.fu_full::SimdAdd                      0      0.00%     67.49% # attempts to use FU when none available
system.cpu.iq.fu_full::SimdAddAcc                   0      0.00%     67.49% # attempts to use FU when none available
system.cpu.iq.fu_full::SimdAlu                      0      0.00%     67.49% # attempts to use FU when none available
system.cpu.iq.fu_full::SimdCmp                      0      0.00%     67.49% # attempts to use FU when none available
system.cpu.iq.fu_full::SimdCvt                      0      0.00%     67.49% # attempts to use FU when none available
system.cpu.iq.fu_full::SimdMisc                     0      0.00%     67.49% # attempts to use FU when none available
system.cpu.iq.fu_full::SimdMult                     0      0.00%     67.49% # attempts to use FU when none available
system.cpu.iq.fu_full::SimdMultAcc                  0      0.00%     67.49% # attempts to use FU when none available
system.cpu.iq.fu_full::SimdShift                    0      0.00%     67.49% # attempts to use FU when none available
system.cpu.iq.fu_full::SimdShiftAcc                 0      0.00%     67.49% # attempts to use FU when none available
system.cpu.iq.fu_full::SimdSqrt                     0      0.00%     67.49% # attempts to use FU when none available
system.cpu.iq.fu_full::SimdFloatAdd                 0      0.00%     67.49% # attempts to use FU when none available
system.cpu.iq.fu_full::SimdFloatAlu                 0      0.00%     67.49% # attempts to use FU when none available
system.cpu.iq.fu_full::SimdFloatCmp                 0      0.00%     67.49% # attempts to use FU when none available
system.cpu.iq.fu_full::SimdFloatCvt                 0      0.00%     67.49% # attempts to use FU when none available
system.cpu.iq.fu_full::SimdFloatDiv                 0      0.00%     67.49% # attempts to use FU when none available
system.cpu.iq.fu_full::SimdFloatMisc                0      0.00%     67.49% # attempts to use FU when none available
system.cpu.iq.fu_full::SimdFloatMult                0      0.00%     67.49% # attempts to use FU when none available
system.cpu.iq.fu_full::SimdFloatMultAcc             0      0.00%     67.49% # attempts to use FU when none available
system.cpu.iq.fu_full::SimdFloatSqrt                0      0.00%     67.49% # attempts to use FU when none available
system.cpu.iq.fu_full::MemRead                   8750     23.22%     90.71% # attempts to use FU when none available
system.cpu.iq.fu_full::MemWrite                  3460      9.18%     99.89% # attempts to use FU when none available
system.cpu.iq.fu_full::FloatMemRead                14      0.04%     99.93% # attempts to use FU when none available
system.cpu.iq.fu_full::FloatMemWrite               27      0.07%    100.00% # attempts to use FU when none available
system.cpu.iq.fu_full::IprAccess                    0      0.00%    100.00% # attempts to use FU when none available
system.cpu.iq.fu_full::InstPrefetch                 0      0.00%    100.00% # attempts to use FU when none available
system.cpu.iq.FU_type_0::No_OpClass             34689      1.36%      1.36% # Type of FU issued
system.cpu.iq.FU_type_0::IntAlu               1887145     74.20%     75.56% # Type of FU issued
system.cpu.iq.FU_type_0::IntMult                 1489      0.06%     75.62% # Type of FU issued
system.cpu.iq.FU_type_0::IntDiv                  1801      0.07%     75.69% # Type of FU issued
system.cpu.iq.FU_type_0::FloatAdd                3210      0.13%     75.82% # Type of FU issued
system.cpu.iq.FU_type_0::FloatCmp                   0      0.00%     75.82% # Type of FU issued
system.cpu.iq.FU_type_0::FloatCvt                   0      0.00%     75.82% # Type of FU issued
system.cpu.iq.FU_type_0::FloatMult                  0      0.00%     75.82% # Type of FU issued
system.cpu.iq.FU_type_0::FloatMultAcc               0      0.00%     75.82% # Type of FU issued
system.cpu.iq.FU_type_0::FloatDiv                   0      0.00%     75.82% # Type of FU issued
system.cpu.iq.FU_type_0::FloatMisc                  0      0.00%     75.82% # Type of FU issued
system.cpu.iq.FU_type_0::FloatSqrt                  0      0.00%     75.82% # Type of FU issued
system.cpu.iq.FU_type_0::SimdAdd                    0      0.00%     75.82% # Type of FU issued
system.cpu.iq.FU_type_0::SimdAddAcc                 0      0.00%     75.82% # Type of FU issued
system.cpu.iq.FU_type_0::SimdAlu                    0      0.00%     75.82% # Type of FU issued
system.cpu.iq.FU_type_0::SimdCmp                    0      0.00%     75.82% # Type of FU issued
system.cpu.iq.FU_type_0::SimdCvt                    0      0.00%     75.82% # Type of FU issued
system.cpu.iq.FU_type_0::SimdMisc                   0      0.00%     75.82% # Type of FU issued
system.cpu.iq.FU_type_0::SimdMult                   0      0.00%     75.82% # Type of FU issued
system.cpu.iq.FU_type_0::SimdMultAcc                0      0.00%     75.82% # Type of FU issued
system.cpu.iq.FU_type_0::SimdShift                  0      0.00%     75.82% # Type of FU issued
system.cpu.iq.FU_type_0::SimdShiftAcc               0      0.00%     75.82% # Type of FU issued
system.cpu.iq.FU_type_0::SimdSqrt                   0      0.00%     75.82% # Type of FU issued
system.cpu.iq.FU_type_0::SimdFloatAdd               0      0.00%     75.82% # Type of FU issued
system.cpu.iq.FU_type_0::SimdFloatAlu               0      0.00%     75.82% # Type of FU issued
system.cpu.iq.FU_type_0::SimdFloatCmp               0      0.00%     75.82% # Type of FU issued
system.cpu.iq.FU_type_0::SimdFloatCvt               0      0.00%     75.82% # Type of FU issued
system.cpu.iq.FU_type_0::SimdFloatDiv               0      0.00%     75.82% # Type of FU issued
system.cpu.iq.FU_type_0::SimdFloatMisc              0      0.00%     75.82% # Type of FU issued
system.cpu.iq.FU_type_0::SimdFloatMult              0      0.00%     75.82% # Type of FU issued
system.cpu.iq.FU_type_0::SimdFloatMultAcc            0      0.00%     75.82% # Type of FU issued
system.cpu.iq.FU_type_0::SimdFloatSqrt              0      0.00%     75.82% # Type of FU issued
system.cpu.iq.FU_type_0::MemRead               375005     14.74%     90.56% # Type of FU issued
system.cpu.iq.FU_type_0::MemWrite              238408      9.37%     99.94% # Type of FU issued
system.cpu.iq.FU_type_0::FloatMemRead            1514      0.06%    100.00% # Type of FU issued
system.cpu.iq.FU_type_0::FloatMemWrite            109      0.00%    100.00% # Type of FU issued
system.cpu.iq.FU_type_0::IprAccess                  0      0.00%    100.00% # Type of FU issued
system.cpu.iq.FU_type_0::InstPrefetch               0      0.00%    100.00% # Type of FU issued
system.cpu.iq.FU_type_0::total                2543370                       # Type of FU issued
system.cpu.iq.rate                           1.024309                       # Inst issue rate
system.cpu.iq.fu_busy_cnt                       37680                       # FU busy when requested
system.cpu.iq.fu_busy_rate                   0.014815                       # FU busy rate (busy events/executed inst)
system.cpu.iq.int_inst_queue_reads            7480405                       # Number of integer instruction queue reads
system.cpu.iq.int_inst_queue_writes           4106187                       # Number of integer instruction queue writes
system.cpu.iq.int_inst_queue_wakeup_accesses      2379016                       # Number of integer instruction queue wakeup accesses
system.cpu.iq.fp_inst_queue_reads               10384                       # Number of floating instruction queue reads
system.cpu.iq.fp_inst_queue_writes              12256                       # Number of floating instruction queue writes
system.cpu.iq.fp_inst_queue_wakeup_accesses         4370                       # Number of floating instruction queue wakeup accesses
system.cpu.iq.int_alu_accesses                2541255                       # Number of integer alu accesses
system.cpu.iq.fp_alu_accesses                    5106                       # Number of floating point alu accesses
system.cpu.iew.lsq.thread0.forwLoads            31803                       # Number of loads that had data forwarded from stores
system.cpu.iew.lsq.thread0.invAddrLoads             0                       # Number of loads ignored due to an invalid address
system.cpu.iew.lsq.thread0.squashedLoads       168877                       # Number of loads squashed
system.cpu.iew.lsq.thread0.ignoredResponses          666                       # Number of memory responses ignored because the instruction is squashed
system.cpu.iew.lsq.thread0.memOrderViolation         1157                       # Number of memory ordering violations
system.cpu.iew.lsq.thread0.squashedStores        86210                       # Number of stores squashed
system.cpu.iew.lsq.thread0.invAddrSwpfs             0                       # Number of software prefetches ignored due to an invalid address
system.cpu.iew.lsq.thread0.blockedLoads             0                       # Number of blocked loads due to partial load-store forwarding
system.cpu.iew.lsq.thread0.rescheduledLoads         1360                       # Number of loads that were rescheduled
system.cpu.iew.lsq.thread0.cacheBlocked          2096                       # Number of times an access to memory failed due to the cache being blocked
system.cpu.iew.iewIdleCycles                        0                       # Number of cycles IEW is idle
system.cpu.iew.iewSquashCycles                  56006                       # Number of cycles IEW is squashing
system.cpu.iew.iewBlockCycles                  346738                       # Number of cycles IEW is blocking
system.cpu.iew.iewUnblockCycles                161452                       # Number of cycles IEW is unblocking
system.cpu.iew.iewDispatchedInsts             2946156                       # Number of instructions dispatched to IQ
system.cpu.iew.iewDispSquashedInsts              5346                       # Number of squashed instructions skipped by dispatch
system.cpu.iew.iewDispLoadInsts                428782                       # Number of dispatched load instructions
system.cpu.iew.iewDispStoreInsts               278035                       # Number of dispatched store instructions
system.cpu.iew.iewDispNonSpecInsts              15386                       # Number of dispatched non-speculative instructions
system.cpu.iew.iewIQFullEvents                   1126                       # Number of times the IQ has become full, causing a stall
system.cpu.iew.iewLSQFullEvents                159765                       # Number of times the LSQ has become full, causing a stall
system.cpu.iew.memOrderViolationEvents           1157                       # Number of memory order violations
system.cpu.iew.predictedTakenIncorrect          14645                       # Number of branches that were predicted taken incorrectly
system.cpu.iew.predictedNotTakenIncorrect        54814                       # Number of branches that were predicted not taken incorrectly
system.cpu.iew.branchMispredicts                69459                       # Number of branch mispredicts detected at execute
system.cpu.iew.iewExecutedInsts               2427348                       # Number of executed instructions
system.cpu.iew.iewExecLoadInsts                347315                       # Number of load instructions executed
system.cpu.iew.iewExecSquashedInsts            105159                       # Number of squashed instructions skipped in execute
system.cpu.iew.exec_swp                             0                       # number of swp insts executed
system.cpu.iew.exec_nop                            39                       # number of nop insts executed
system.cpu.iew.exec_refs                       572487                       # number of memory reference insts executed
system.cpu.iew.exec_branches                   242963                       # Number of branches executed
system.cpu.iew.exec_stores                     225172                       # Number of stores executed
system.cpu.iew.exec_rate                     0.977582                       # Inst execution rate
system.cpu.iew.wb_sent                        2400032                       # cumulative count of insts sent to commit
system.cpu.iew.wb_count                       2383386                       # cumulative count of insts written-back
system.cpu.iew.wb_producers                   1565381                       # num instructions producing a value
system.cpu.iew.wb_consumers                   2514278                       # num instructions consuming a value
system.cpu.iew.wb_rate                       0.959877                       # insts written-back per cycle
system.cpu.iew.wb_fanout                     0.622597                       # average fanout of values written-back
system.cpu.commit.commitSquashedInsts         1170032                       # The number of squashed insts skipped by commit
system.cpu.commit.commitNonSpecStalls           11707                       # The number of times commit has been forced to stall to communicate backwards
system.cpu.commit.branchMispredicts             53533                       # The number of times a branch was mispredicted
system.cpu.commit.committed_per_cycle::samples      2151483                       # Number of insts commited each cycle
system.cpu.commit.committed_per_cycle::mean     0.824971                       # Number of insts commited each cycle
system.cpu.commit.committed_per_cycle::stdev     1.922015                       # Number of insts commited each cycle
system.cpu.commit.committed_per_cycle::underflows            0      0.00%      0.00% # Number of insts commited each cycle
system.cpu.commit.committed_per_cycle::0      1621977     75.39%     75.39% # Number of insts commited each cycle
system.cpu.commit.committed_per_cycle::1       188095      8.74%     84.13% # Number of insts commited each cycle
system.cpu.commit.committed_per_cycle::2        75900      3.53%     87.66% # Number of insts commited each cycle
system.cpu.commit.committed_per_cycle::3        77067      3.58%     91.24% # Number of insts commited each cycle
system.cpu.commit.committed_per_cycle::4        43672      2.03%     93.27% # Number of insts commited each cycle
system.cpu.commit.committed_per_cycle::5        27170      1.26%     94.53% # Number of insts commited each cycle
system.cpu.commit.committed_per_cycle::6        17692      0.82%     95.36% # Number of insts commited each cycle
system.cpu.commit.committed_per_cycle::7        12155      0.56%     95.92% # Number of insts commited each cycle
system.cpu.commit.committed_per_cycle::8        87755      4.08%    100.00% # Number of insts commited each cycle
system.cpu.commit.committed_per_cycle::overflows            0      0.00%    100.00% # Number of insts commited each cycle
system.cpu.commit.committed_per_cycle::min_value            0                       # Number of insts commited each cycle
system.cpu.commit.committed_per_cycle::max_value            8                       # Number of insts commited each cycle
system.cpu.commit.committed_per_cycle::total      2151483                       # Number of insts commited each cycle
system.cpu.commit.committedInsts               948916                       # Number of instructions committed
system.cpu.commit.committedOps                1774911                       # Number of ops (including micro ops) committed
system.cpu.commit.swp_count                         0                       # Number of s/w prefetches committed
system.cpu.commit.refs                         451730                       # Number of memory references committed
system.cpu.commit.loads                        259905                       # Number of loads committed
system.cpu.commit.membars                        1132                       # Number of memory barriers committed
system.cpu.commit.branches                     190191                       # Number of branches committed
system.cpu.commit.vec_insts                         0                       # Number of committed Vector instructions.
system.cpu.commit.fp_insts                       2404                       # Number of committed floating point instructions.
system.cpu.commit.int_insts                   1757142                       # Number of committed integer instructions.
system.cpu.commit.function_calls                19961                       # Number of function calls committed.
system.cpu.commit.op_class_0::No_OpClass        14779      0.83%      0.83% # Class of committed instruction
system.cpu.commit.op_class_0::IntAlu          1303646     73.45%     74.28% # Class of committed instruction
system.cpu.commit.op_class_0::IntMult            1282      0.07%     74.35% # Class of committed instruction
system.cpu.commit.op_class_0::IntDiv             1652      0.09%     74.45% # Class of committed instruction
system.cpu.commit.op_class_0::FloatAdd           1822      0.10%     74.55% # Class of committed instruction
system.cpu.commit.op_class_0::FloatCmp              0      0.00%     74.55% # Class of committed instruction
system.cpu.commit.op_class_0::FloatCvt              0      0.00%     74.55% # Class of committed instruction
system.cpu.commit.op_class_0::FloatMult             0      0.00%     74.55% # Class of committed instruction
system.cpu.commit.op_class_0::FloatMultAcc            0      0.00%     74.55% # Class of committed instruction
system.cpu.commit.op_class_0::FloatDiv              0      0.00%     74.55% # Class of committed instruction
system.cpu.commit.op_class_0::FloatMisc             0      0.00%     74.55% # Class of committed instruction
system.cpu.commit.op_class_0::FloatSqrt             0      0.00%     74.55% # Class of committed instruction
system.cpu.commit.op_class_0::SimdAdd               0      0.00%     74.55% # Class of committed instruction
system.cpu.commit.op_class_0::SimdAddAcc            0      0.00%     74.55% # Class of committed instruction
system.cpu.commit.op_class_0::SimdAlu               0      0.00%     74.55% # Class of committed instruction
system.cpu.commit.op_class_0::SimdCmp               0      0.00%     74.55% # Class of committed instruction
system.cpu.commit.op_class_0::SimdCvt               0      0.00%     74.55% # Class of committed instruction
system.cpu.commit.op_class_0::SimdMisc              0      0.00%     74.55% # Class of committed instruction
system.cpu.commit.op_class_0::SimdMult              0      0.00%     74.55% # Class of committed instruction
system.cpu.commit.op_class_0::SimdMultAcc            0      0.00%     74.55% # Class of committed instruction
system.cpu.commit.op_class_0::SimdShift             0      0.00%     74.55% # Class of committed instruction
system.cpu.commit.op_class_0::SimdShiftAcc            0      0.00%     74.55% # Class of committed instruction
system.cpu.commit.op_class_0::SimdSqrt              0      0.00%     74.55% # Class of committed instruction
system.cpu.commit.op_class_0::SimdFloatAdd            0      0.00%     74.55% # Class of committed instruction
system.cpu.commit.op_class_0::SimdFloatAlu            0      0.00%     74.55% # Class of committed instruction
system.cpu.commit.op_class_0::SimdFloatCmp            0      0.00%     74.55% # Class of committed instruction
system.cpu.commit.op_class_0::SimdFloatCvt            0      0.00%     74.55% # Class of committed instruction
system.cpu.commit.op_class_0::SimdFloatDiv            0      0.00%     74.55% # Class of committed instruction
system.cpu.commit.op_class_0::SimdFloatMisc            0      0.00%     74.55% # Class of committed instruction
system.cpu.commit.op_class_0::SimdFloatMult            0      0.00%     74.55% # Class of committed instruction
system.cpu.commit.op_class_0::SimdFloatMultAcc            0      0.00%     74.55% # Class of committed instruction
system.cpu.commit.op_class_0::SimdFloatSqrt            0      0.00%     74.55% # Class of committed instruction
system.cpu.commit.op_class_0::MemRead          259451     14.62%     89.17% # Class of committed instruction
system.cpu.commit.op_class_0::MemWrite         191825     10.81%     99.97% # Class of committed instruction
system.cpu.commit.op_class_0::FloatMemRead          454      0.03%    100.00% # Class of committed instruction
system.cpu.commit.op_class_0::FloatMemWrite            0      0.00%    100.00% # Class of committed instruction
system.cpu.commit.op_class_0::IprAccess             0      0.00%    100.00% # Class of committed instruction
system.cpu.commit.op_class_0::InstPrefetch            0      0.00%    100.00% # Class of committed instruction
system.cpu.commit.op_class_0::total           1774911                       # Class of committed instruction
system.cpu.commit.bw_lim_events                 87755                       # number cycles where commit BW limit reached
system.cpu.rob.rob_reads                      5003105                       # The number of ROB reads
system.cpu.rob.rob_writes                     6088111                       # The number of ROB writes
system.cpu.timesIdled                            7245                       # Number of times that the entire CPU went into an idle state and unscheduled itself
system.cpu.idleCycles                          137115                       # Total number of cycles that the CPU has spent unscheduled due to idling
system.cpu.committedInsts                      948916                       # Number of Instructions Simulated
system.cpu.committedOps                       1774911                       # Number of Ops (including micro ops) Simulated
system.cpu.cpi                               2.616682                       # CPI: Cycles Per Instruction
system.cpu.cpi_total                         2.616682                       # CPI: Total CPI of All Threads
system.cpu.ipc                               0.382163                       # IPC: Instructions Per Cycle
system.cpu.ipc_total                         0.382163                       # IPC: Total IPC of All Threads
system.cpu.int_regfile_reads                  3591106                       # number of integer regfile reads
system.cpu.int_regfile_writes                 1895835                       # number of integer regfile writes
system.cpu.fp_regfile_reads                      6959                       # number of floating regfile reads
system.cpu.fp_regfile_writes                     3705                       # number of floating regfile writes
system.cpu.cc_regfile_reads                   1094089                       # number of cc regfile reads
system.cpu.cc_regfile_writes                   703539                       # number of cc regfile writes
system.cpu.misc_regfile_reads                 1103902                       # number of misc regfile reads
system.cpu.misc_regfile_writes                  13123                       # number of misc regfile writes
system.cpu.dcache.tags.pwrStateResidencyTicks::UNDEFINED 4787253867000                       # Cumulative time (in ticks) in various power states
system.cpu.dcache.tags.replacements             21332                       # number of replacements
system.cpu.dcache.tags.tagsinuse                 1024                       # Cycle average of tags in use
system.cpu.dcache.tags.total_refs              451556                       # Total number of references to valid blocks.
system.cpu.dcache.tags.sampled_refs             21332                       # Sample count of references to valid blocks.
system.cpu.dcache.tags.avg_refs             21.168011                       # Average number of references to valid blocks.
system.cpu.dcache.tags.warmup_cycle                 0                       # Cycle when the warmup percentage was hit.
system.cpu.dcache.tags.occ_blocks::cpu.data         1024                       # Average occupied blocks per requestor
system.cpu.dcache.tags.occ_percent::cpu.data            1                       # Average percentage of cache occupancy
system.cpu.dcache.tags.occ_percent::total            1                       # Average percentage of cache occupancy
system.cpu.dcache.tags.occ_task_id_blocks::1024         1024                       # Occupied blocks per task id
system.cpu.dcache.tags.age_task_id_blocks_1024::0           52                       # Occupied blocks per task id
system.cpu.dcache.tags.age_task_id_blocks_1024::1          754                       # Occupied blocks per task id
system.cpu.dcache.tags.age_task_id_blocks_1024::2          217                       # Occupied blocks per task id
system.cpu.dcache.tags.age_task_id_blocks_1024::4            1                       # Occupied blocks per task id
system.cpu.dcache.tags.occ_task_id_percent::1024            1                       # Percentage of cache occupancy per task id
system.cpu.dcache.tags.tag_accesses           1028302                       # Number of tag accesses
system.cpu.dcache.tags.data_accesses          1028302                       # Number of data accesses
system.cpu.dcache.pwrStateResidencyTicks::UNDEFINED 4787253867000                       # Cumulative time (in ticks) in various power states
system.cpu.dcache.ReadReq_hits::cpu.data       285100                       # number of ReadReq hits
system.cpu.dcache.ReadReq_hits::total          285100                       # number of ReadReq hits
system.cpu.dcache.WriteReq_hits::cpu.data       182704                       # number of WriteReq hits
system.cpu.dcache.WriteReq_hits::total         182704                       # number of WriteReq hits
system.cpu.dcache.SoftPFReq_hits::cpu.data          563                       # number of SoftPFReq hits
system.cpu.dcache.SoftPFReq_hits::total           563                       # number of SoftPFReq hits
system.cpu.dcache.demand_hits::cpu.data        467804                       # number of demand (read+write) hits
system.cpu.dcache.demand_hits::total           467804                       # number of demand (read+write) hits
system.cpu.dcache.overall_hits::cpu.data       468367                       # number of overall hits
system.cpu.dcache.overall_hits::total          468367                       # number of overall hits
system.cpu.dcache.ReadReq_misses::cpu.data        23071                       # number of ReadReq misses
system.cpu.dcache.ReadReq_misses::total         23071                       # number of ReadReq misses
system.cpu.dcache.WriteReq_misses::cpu.data         9066                       # number of WriteReq misses
system.cpu.dcache.WriteReq_misses::total         9066                       # number of WriteReq misses
system.cpu.dcache.SoftPFReq_misses::cpu.data         2981                       # number of SoftPFReq misses
system.cpu.dcache.SoftPFReq_misses::total         2981                       # number of SoftPFReq misses
system.cpu.dcache.demand_misses::cpu.data        32137                       # number of demand (read+write) misses
system.cpu.dcache.demand_misses::total          32137                       # number of demand (read+write) misses
system.cpu.dcache.overall_misses::cpu.data        35118                       # number of overall misses
system.cpu.dcache.overall_misses::total         35118                       # number of overall misses
system.cpu.dcache.ReadReq_miss_latency::cpu.data    286646000                       # number of ReadReq miss cycles
system.cpu.dcache.ReadReq_miss_latency::total    286646000                       # number of ReadReq miss cycles
system.cpu.dcache.WriteReq_miss_latency::cpu.data    163447981                       # number of WriteReq miss cycles
system.cpu.dcache.WriteReq_miss_latency::total    163447981                       # number of WriteReq miss cycles
system.cpu.dcache.demand_miss_latency::cpu.data    450093981                       # number of demand (read+write) miss cycles
system.cpu.dcache.demand_miss_latency::total    450093981                       # number of demand (read+write) miss cycles
[...]
system.l2cache.demand_mshr_misses::total         1525                       # number of demand (read+write) MSHR misses
system.l2cache.overall_mshr_misses::cpu.inst          463                       # number of overall MSHR misses
system.l2cache.overall_mshr_misses::cpu.data         1062                       # number of overall MSHR misses
system.l2cache.overall_mshr_misses::total         1525                       # number of overall MSHR misses
system.l2cache.ReadReq_mshr_uncacheable::cpu.data          353                       # number of ReadReq MSHR uncacheable
system.l2cache.ReadReq_mshr_uncacheable::total          353                       # number of ReadReq MSHR uncacheable
system.l2cache.WriteReq_mshr_uncacheable::cpu.data          131                       # number of WriteReq MSHR uncacheable
system.l2cache.WriteReq_mshr_uncacheable::total          131                       # number of WriteReq MSHR uncacheable
system.l2cache.overall_mshr_uncacheable_misses::cpu.data          484                       # number of overall MSHR uncacheable misses
system.l2cache.overall_mshr_uncacheable_misses::total          484                       # number of overall MSHR uncacheable misses
system.l2cache.UpgradeReq_mshr_miss_latency::cpu.data     12532997                       # number of UpgradeReq MSHR miss cycles
system.l2cache.UpgradeReq_mshr_miss_latency::total     12532997                       # number of UpgradeReq MSHR miss cycles
system.l2cache.ReadExReq_mshr_miss_latency::cpu.data     48545000                       # number of ReadExReq MSHR miss cycles
system.l2cache.ReadExReq_mshr_miss_latency::total     48545000                       # number of ReadExReq MSHR miss cycles
system.l2cache.ReadSharedReq_mshr_miss_latency::cpu.inst     38611000                       # number of ReadSharedReq MSHR miss cycles
system.l2cache.ReadSharedReq_mshr_miss_latency::cpu.data     24345500                       # number of ReadSharedReq MSHR miss cycles
system.l2cache.ReadSharedReq_mshr_miss_latency::total     62956500                       # number of ReadSharedReq MSHR miss cycles
system.l2cache.demand_mshr_miss_latency::cpu.inst     38611000                       # number of demand (read+write) MSHR miss cycles
system.l2cache.demand_mshr_miss_latency::cpu.data     72890500                       # number of demand (read+write) MSHR miss cycles
system.l2cache.demand_mshr_miss_latency::total    111501500                       # number of demand (read+write) MSHR miss cycles
system.l2cache.overall_mshr_miss_latency::cpu.inst     38611000                       # number of overall MSHR miss cycles
system.l2cache.overall_mshr_miss_latency::cpu.data     72890500                       # number of overall MSHR miss cycles
system.l2cache.overall_mshr_miss_latency::total    111501500                       # number of overall MSHR miss cycles
system.l2cache.ReadReq_mshr_uncacheable_latency::cpu.data     77130500                       # number of ReadReq MSHR uncacheable cycles
system.l2cache.ReadReq_mshr_uncacheable_latency::total     77130500                       # number of ReadReq MSHR uncacheable cycles
system.l2cache.overall_mshr_uncacheable_latency::cpu.data     77130500                       # number of overall MSHR uncacheable cycles
system.l2cache.overall_mshr_uncacheable_latency::total     77130500                       # number of overall MSHR uncacheable cycles
system.l2cache.UpgradeReq_mshr_miss_rate::cpu.data     0.945175                       # mshr miss rate for UpgradeReq accesses
system.l2cache.UpgradeReq_mshr_miss_rate::total     0.945175                       # mshr miss rate for UpgradeReq accesses
system.l2cache.ReadExReq_mshr_miss_rate::cpu.data     0.061646                       # mshr miss rate for ReadExReq accesses
system.l2cache.ReadExReq_mshr_miss_rate::total     0.061646                       # mshr miss rate for ReadExReq accesses
system.l2cache.ReadSharedReq_mshr_miss_rate::cpu.inst     0.014366                       # mshr miss rate for ReadSharedReq accesses
system.l2cache.ReadSharedReq_mshr_miss_rate::cpu.data     0.011409                       # mshr miss rate for ReadSharedReq accesses
system.l2cache.ReadSharedReq_mshr_miss_rate::total     0.013222                       # mshr miss rate for ReadSharedReq accesses
system.l2cache.demand_mshr_miss_rate::cpu.inst     0.014366                       # mshr miss rate for demand accesses
system.l2cache.demand_mshr_miss_rate::cpu.data     0.031421                       # mshr miss rate for demand accesses
system.l2cache.demand_mshr_miss_rate::total     0.023096                       # mshr miss rate for demand accesses
system.l2cache.overall_mshr_miss_rate::cpu.inst     0.014366                       # mshr miss rate for overall accesses
system.l2cache.overall_mshr_miss_rate::cpu.data     0.031421                       # mshr miss rate for overall accesses
system.l2cache.overall_mshr_miss_rate::total     0.023096                       # mshr miss rate for overall accesses
system.l2cache.UpgradeReq_avg_mshr_miss_latency::cpu.data 14539.439675                       # average UpgradeReq mshr miss latency
system.l2cache.UpgradeReq_avg_mshr_miss_latency::total 14539.439675                       # average UpgradeReq mshr miss latency
system.l2cache.ReadExReq_avg_mshr_miss_latency::cpu.data 58487.951807                       # average ReadExReq mshr miss latency
system.l2cache.ReadExReq_avg_mshr_miss_latency::total 58487.951807                       # average ReadExReq mshr miss latency
system.l2cache.ReadSharedReq_avg_mshr_miss_latency::cpu.inst 83393.088553                       # average ReadSharedReq mshr miss latency
system.l2cache.ReadSharedReq_avg_mshr_miss_latency::cpu.data 104937.500000                       # average ReadSharedReq mshr miss latency
system.l2cache.ReadSharedReq_avg_mshr_miss_latency::total 90584.892086                       # average ReadSharedReq mshr miss latency
system.l2cache.demand_avg_mshr_miss_latency::cpu.inst 83393.088553                       # average overall mshr miss latency
system.l2cache.demand_avg_mshr_miss_latency::cpu.data 68635.122411                       # average overall mshr miss latency
system.l2cache.demand_avg_mshr_miss_latency::total 73115.737705                       # average overall mshr miss latency
system.l2cache.overall_avg_mshr_miss_latency::cpu.inst 83393.088553                       # average overall mshr miss latency
system.l2cache.overall_avg_mshr_miss_latency::cpu.data 68635.122411                       # average overall mshr miss latency
system.l2cache.overall_avg_mshr_miss_latency::total 73115.737705                       # average overall mshr miss latency
system.l2cache.ReadReq_avg_mshr_uncacheable_latency::cpu.data       218500                       # average ReadReq mshr uncacheable latency
system.l2cache.ReadReq_avg_mshr_uncacheable_latency::total       218500                       # average ReadReq mshr uncacheable latency
system.l2cache.overall_avg_mshr_uncacheable_latency::cpu.data 159360.537190                       # average overall mshr uncacheable latency
system.l2cache.overall_avg_mshr_uncacheable_latency::total 159360.537190                       # average overall mshr uncacheable latency
system.membus.snoop_filter.tot_requests         36182                       # Total number of requests made to the snoop filter.
system.membus.snoop_filter.hit_single_requests        34792                       # Number of requests hitting in the snoop filter with a single holder of the requested data.
system.membus.snoop_filter.hit_multi_requests            0                       # Number of requests hitting in the snoop filter with multiple (>1) holders of the requested data.
system.membus.snoop_filter.tot_snoops               0                       # Total number of snoops made to the snoop filter.
system.membus.snoop_filter.hit_single_snoops            0                       # Number of snoops hitting in the snoop filter with a single holder of the requested data.
system.membus.snoop_filter.hit_multi_snoops            0                       # Number of snoops hitting in the snoop filter with multiple (>1) holders of the requested data.
system.membus.pwrStateResidencyTicks::UNDEFINED 4787883464500                       # Cumulative time (in ticks) in various power states
system.membus.trans_dist::ReadReq               36604                       # Transaction distribution
system.membus.trans_dist::ReadResp              37299                       # Transaction distribution
system.membus.trans_dist::WriteReq                131                       # Transaction distribution
system.membus.trans_dist::WriteResp               131                       # Transaction distribution
system.membus.trans_dist::WritebackDirty          582                       # Transaction distribution
system.membus.trans_dist::CleanEvict              626                       # Transaction distribution
system.membus.trans_dist::UpgradeReq              996                       # Transaction distribution
system.membus.trans_dist::ReadExReq               696                       # Transaction distribution
system.membus.trans_dist::ReadExResp              696                       # Transaction distribution
system.membus.trans_dist::ReadSharedReq           695                       # Transaction distribution
system.membus.trans_dist::MessageReq              119                       # Transaction distribution
system.membus.trans_dist::MessageResp             119                       # Transaction distribution
system.membus.pkt_count_system.apicbridge.master::system.cpu.interrupts.int_slave          238                       # Packet count per connected master and slave (bytes)
system.membus.pkt_count_system.apicbridge.master::total          238                       # Packet count per connected master and slave (bytes)
system.membus.pkt_count_system.l2cache.mem_side::system.bridge.slave          952                       # Packet count per connected master and slave (bytes)
system.membus.pkt_count_system.l2cache.mem_side::system.mem_cntrl.port         4986                       # Packet count per connected master and slave (bytes)
system.membus.pkt_count_system.l2cache.mem_side::system.cpu.interrupts.pio           16                       # Packet count per connected master and slave (bytes)
system.membus.pkt_count_system.l2cache.mem_side::total         5954                       # Packet count per connected master and slave (bytes)
system.membus.pkt_count_system.cpu.itb.walker.port::system.mem_cntrl.port         7600                       # Packet count per connected master and slave (bytes)
system.membus.pkt_count_system.cpu.itb.walker.port::total         7600                       # Packet count per connected master and slave (bytes)
system.membus.pkt_count_system.cpu.dtb.walker.port::system.mem_cntrl.port        32368                       # Packet count per connected master and slave (bytes)
system.membus.pkt_count_system.cpu.dtb.walker.port::total        32368                       # Packet count per connected master and slave (bytes)
system.membus.pkt_count::total                  46160                       # Packet count per connected master and slave (bytes)
system.membus.pkt_size_system.apicbridge.master::system.cpu.interrupts.int_slave          476                       # Cumulative packet size per connected master and slave (bytes)
system.membus.pkt_size_system.apicbridge.master::total          476                       # Cumulative packet size per connected master and slave (bytes)
system.membus.pkt_size_system.l2cache.mem_side::system.bridge.slave          476                       # Cumulative packet size per connected master and slave (bytes)
system.membus.pkt_size_system.l2cache.mem_side::system.mem_cntrl.port       126272                       # Cumulative packet size per connected master and slave (bytes)
system.membus.pkt_size_system.l2cache.mem_side::system.cpu.interrupts.pio           32                       # Cumulative packet size per connected master and slave (bytes)
system.membus.pkt_size_system.l2cache.mem_side::total       126780                       # Cumulative packet size per connected master and slave (bytes)
system.membus.pkt_size_system.cpu.itb.walker.port::system.mem_cntrl.port          608                       # Cumulative packet size per connected master and slave (bytes)
system.membus.pkt_size_system.cpu.itb.walker.port::total          608                       # Cumulative packet size per connected master and slave (bytes)
system.membus.pkt_size_system.cpu.dtb.walker.port::system.mem_cntrl.port        29128                       # Cumulative packet size per connected master and slave (bytes)
system.membus.pkt_size_system.cpu.dtb.walker.port::total        29128                       # Cumulative packet size per connected master and slave (bytes)
system.membus.pkt_size::total                  156992                       # Cumulative packet size per connected master and slave (bytes)
system.membus.snoops                            32534                       # Total snoops (count)
system.membus.snoopTraffic                     260272                       # Total snoop traffic (bytes)
system.membus.snoop_fanout::samples             39241                       # Request fanout histogram
system.membus.snoop_fanout::mean             0.830432                       # Request fanout histogram
system.membus.snoop_fanout::stdev            0.375257                       # Request fanout histogram
system.membus.snoop_fanout::underflows              0      0.00%      0.00% # Request fanout histogram
system.membus.snoop_fanout::0                    6654     16.96%     16.96% # Request fanout histogram
system.membus.snoop_fanout::1                   32587     83.04%    100.00% # Request fanout histogram
system.membus.snoop_fanout::2                       0      0.00%    100.00% # Request fanout histogram
system.membus.snoop_fanout::overflows               0      0.00%    100.00% # Request fanout histogram
system.membus.snoop_fanout::min_value               0                       # Request fanout histogram
system.membus.snoop_fanout::max_value               1                       # Request fanout histogram
system.membus.snoop_fanout::total               39241                       # Request fanout histogram
system.membus.reqLayer0.occupancy              299500                       # Layer occupancy (ticks)
system.membus.reqLayer0.utilization               0.0                       # Layer utilization (%)
system.membus.reqLayer1.occupancy            21088497                       # Layer occupancy (ticks)
system.membus.reqLayer1.utilization               1.1                       # Layer utilization (%)
system.membus.reqLayer2.occupancy                8000                       # Layer occupancy (ticks)
system.membus.reqLayer2.utilization               0.0                       # Layer utilization (%)
system.membus.reqLayer3.occupancy              119000                       # Layer occupancy (ticks)
system.membus.reqLayer3.utilization               0.0                       # Layer utilization (%)
system.membus.respLayer1.occupancy              59500                       # Layer occupancy (ticks)
system.membus.respLayer1.utilization              0.0                       # Layer utilization (%)
system.membus.respLayer3.occupancy            4154250                       # Layer occupancy (ticks)
system.membus.respLayer3.utilization              0.2                       # Layer utilization (%)
system.membus.respLayer4.occupancy            7691441                       # Layer occupancy (ticks)
system.membus.respLayer4.utilization              0.4                       # Layer utilization (%)
system.membus.respLayer5.occupancy           29528413                       # Layer occupancy (ticks)
system.membus.respLayer5.utilization              1.6                       # Layer utilization (%)
system.membus.badaddr_responder.pwrStateResidencyTicks::UNDEFINED 4787883464500                       # Cumulative time (in ticks) in various power states
system.pc.behind_pci.pwrStateResidencyTicks::UNDEFINED 4787883464500                       # Cumulative time (in ticks) in various power states
system.pc.com_1.pwrStateResidencyTicks::UNDEFINED 4787883464500                       # Cumulative time (in ticks) in various power states
system.pc.fake_com_2.pwrStateResidencyTicks::UNDEFINED 4787883464500                       # Cumulative time (in ticks) in various power states
system.pc.fake_com_3.pwrStateResidencyTicks::UNDEFINED 4787883464500                       # Cumulative time (in ticks) in various power states
system.pc.fake_com_4.pwrStateResidencyTicks::UNDEFINED 4787883464500                       # Cumulative time (in ticks) in various power states
system.pc.fake_floppy.pwrStateResidencyTicks::UNDEFINED 4787883464500                       # Cumulative time (in ticks) in various power states
system.pc.i_dont_exist1.pwrStateResidencyTicks::UNDEFINED 4787883464500                       # Cumulative time (in ticks) in various power states
system.pc.i_dont_exist2.pwrStateResidencyTicks::UNDEFINED 4787883464500                       # Cumulative time (in ticks) in various power states
system.pc.pci_host.pwrStateResidencyTicks::UNDEFINED 4787883464500                       # Cumulative time (in ticks) in various power states
system.pc.south_bridge.cmos.pwrStateResidencyTicks::UNDEFINED 4787883464500                       # Cumulative time (in ticks) in various power states
system.pc.south_bridge.dma1.pwrStateResidencyTicks::UNDEFINED 4787883464500                       # Cumulative time (in ticks) in various power states
system.pc.south_bridge.pic2.pwrStateResidencyTicks::UNDEFINED 4787883464500                       # Cumulative time (in ticks) in various power states
system.pc.south_bridge.pic1.pwrStateResidencyTicks::UNDEFINED 4787883464500                       # Cumulative time (in ticks) in various power states
system.pc.south_bridge.io_apic.pwrStateResidencyTicks::UNDEFINED 4787883464500                       # Cumulative time (in ticks) in various power states
system.pc.south_bridge.keyboard.pwrStateResidencyTicks::UNDEFINED 4787883464500                       # Cumulative time (in ticks) in various power states
system.pc.south_bridge.pit.pwrStateResidencyTicks::UNDEFINED 4787883464500                       # Cumulative time (in ticks) in various power states
system.pc.south_bridge.speaker.pwrStateResidencyTicks::UNDEFINED 4787883464500                       # Cumulative time (in ticks) in various power states
system.pc.south_bridge.ide.disks.dma_read_full_pages            0                       # Number of full page size DMA reads (not PRD).
system.pc.south_bridge.ide.disks.dma_read_bytes            0                       # Number of bytes transfered via DMA reads (not PRD).
system.pc.south_bridge.ide.disks.dma_read_txs            0                       # Number of DMA read transactions (not PRD).
system.pc.south_bridge.ide.disks.dma_write_full_pages            0                       # Number of full page size DMA writes.
system.pc.south_bridge.ide.disks.dma_write_bytes            0                       # Number of bytes transfered via DMA writes.
system.pc.south_bridge.ide.disks.dma_write_txs            0                       # Number of DMA write transactions.
system.pc.south_bridge.ide.pwrStateResidencyTicks::UNDEFINED 4787883464500                       # Cumulative time (in ticks) in various power states
system.cpu.kern.inst.arm                            0                       # number of arm instructions executed
system.cpu.kern.inst.quiesce                        0                       # number of quiesce instructions executed

---------- End Simulation Statistics   ----------
