
---------- Begin Simulation Statistics ----------
sim_seconds                                  0.001218                       # Number of seconds simulated
sim_ticks                                  1217543500                       # Number of ticks simulated
final_tick                               4807224293500                       # Number of ticks from beginning of simulation (restored from checkpoints and never reset)
sim_freq                                 1000000000000                       # Frequency of simulated ticks
host_inst_rate                               41575478                       # Simulator instruction rate (inst/s)
host_op_rate                                 98168230                       # Simulator op (including micro ops) rate (op/s)
host_tick_rate                               35079968                       # Simulator tick rate (ticks/s)
host_mem_usage                                1526396                       # Number of bytes of host memory used
host_seconds                                    34.71                       # Real time elapsed on the host
sim_insts                                  1442985541                       # Number of instructions simulated
sim_ops                                    3407187091                       # Number of ops (including micro ops) simulated
system.clk_domain.voltage_domain.voltage            1                       # Voltage in Volts
system.clk_domain.clock                           500                       # Clock period in ticks
system.mem_cntrl.pwrStateResidencyTicks::UNDEFINED 4807224293500                       # Cumulative time (in ticks) in various power states
system.mem_cntrl.bytes_read::cpu.dtb.walker        15232                       # Number of bytes read from this memory
system.mem_cntrl.bytes_read::cpu.itb.walker          296                       # Number of bytes read from this memory
system.mem_cntrl.bytes_read::cpu.inst           30592                       # Number of bytes read from this memory
system.mem_cntrl.bytes_read::cpu.data           43712                       # Number of bytes read from this memory
system.mem_cntrl.bytes_read::total              89832                       # Number of bytes read from this memory
system.mem_cntrl.bytes_inst_read::cpu.inst        30592                       # Number of instructions bytes read from this memory
system.mem_cntrl.bytes_inst_read::total         30592                       # Number of instructions bytes read from this memory
system.mem_cntrl.bytes_written::writebacks        33600                       # Number of bytes written to this memory
system.mem_cntrl.bytes_written::total           33600                       # Number of bytes written to this memory
system.mem_cntrl.num_reads::cpu.dtb.walker         1904                       # Number of read requests responded to by this memory
system.mem_cntrl.num_reads::cpu.itb.walker           37                       # Number of read requests responded to by this memory
system.mem_cntrl.num_reads::cpu.inst              478                       # Number of read requests responded to by this memory
system.mem_cntrl.num_reads::cpu.data              683                       # Number of read requests responded to by this memory
system.mem_cntrl.num_reads::total                3102                       # Number of read requests responded to by this memory
system.mem_cntrl.num_writes::writebacks           525                       # Number of write requests responded to by this memory
system.mem_cntrl.num_writes::total                525                       # Number of write requests responded to by this memory
system.mem_cntrl.bw_read::cpu.dtb.walker     12510436                       # Total read bandwidth from this memory (bytes/s)
system.mem_cntrl.bw_read::cpu.itb.walker       243112                       # Total read bandwidth from this memory (bytes/s)
system.mem_cntrl.bw_read::cpu.inst           25126002                       # Total read bandwidth from this memory (bytes/s)
system.mem_cntrl.bw_read::cpu.data           35901797                       # Total read bandwidth from this memory (bytes/s)
system.mem_cntrl.bw_read::total              73781347                       # Total read bandwidth from this memory (bytes/s)
system.mem_cntrl.bw_inst_read::cpu.inst      25126002                       # Instruction read bandwidth from this memory (bytes/s)
system.mem_cntrl.bw_inst_read::total         25126002                       # Instruction read bandwidth from this memory (bytes/s)
system.mem_cntrl.bw_write::writebacks        27596550                       # Write bandwidth from this memory (bytes/s)
system.mem_cntrl.bw_write::total             27596550                       # Write bandwidth from this memory (bytes/s)
system.mem_cntrl.bw_total::writebacks        27596550                       # Total bandwidth to/from this memory (bytes/s)
system.mem_cntrl.bw_total::cpu.dtb.walker     12510436                       # Total bandwidth to/from this memory (bytes/s)
system.mem_cntrl.bw_total::cpu.itb.walker       243112                       # Total bandwidth to/from this memory (bytes/s)
system.mem_cntrl.bw_total::cpu.inst          25126002                       # Total bandwidth to/from this memory (bytes/s)
system.mem_cntrl.bw_total::cpu.data          35901797                       # Total bandwidth to/from this memory (bytes/s)
system.mem_cntrl.bw_total::total            101377897                       # Total bandwidth to/from this memory (bytes/s)
system.mem_cntrl.readReqs                        3102                       # Number of read requests accepted
system.mem_cntrl.writeReqs                        525                       # Number of write requests accepted
system.mem_cntrl.readBursts                      3102                       # Number of DRAM read bursts, including those serviced by the write queue
system.mem_cntrl.writeBursts                      525                       # Number of DRAM write bursts, including those merged in the write queue
system.mem_cntrl.bytesReadDRAM                 198400                       # Total number of bytes read from DRAM
system.mem_cntrl.bytesReadWrQ                     128                       # Total number of bytes read from write queue
system.mem_cntrl.bytesWritten                   34304                       # Total number of bytes written to DRAM
system.mem_cntrl.bytesReadSys                   89832                       # Total read bytes from the system interface side
system.mem_cntrl.bytesWrittenSys                33600                       # Total written bytes from the system interface side
system.mem_cntrl.servicedByWrQ                      2                       # Number of DRAM read bursts serviced by the write queue
system.mem_cntrl.mergedWrBursts                     0                       # Number of DRAM write bursts merged with an existing one
system.mem_cntrl.neitherReadNorWriteReqs            0                       # Number of requests that are neither read nor write
system.mem_cntrl.perBankRdBursts::0                85                       # Per bank write bursts
system.mem_cntrl.perBankRdBursts::1               147                       # Per bank write bursts
system.mem_cntrl.perBankRdBursts::2                49                       # Per bank write bursts
system.mem_cntrl.perBankRdBursts::3                38                       # Per bank write bursts
system.mem_cntrl.perBankRdBursts::4               287                       # Per bank write bursts
system.mem_cntrl.perBankRdBursts::5               244                       # Per bank write bursts
system.mem_cntrl.perBankRdBursts::6               770                       # Per bank write bursts
system.mem_cntrl.perBankRdBursts::7               196                       # Per bank write bursts
system.mem_cntrl.perBankRdBursts::8               581                       # Per bank write bursts
system.mem_cntrl.perBankRdBursts::9               163                       # Per bank write bursts
system.mem_cntrl.perBankRdBursts::10              150                       # Per bank write bursts
system.mem_cntrl.perBankRdBursts::11              108                       # Per bank write bursts
system.mem_cntrl.perBankRdBursts::12               43                       # Per bank write bursts
system.mem_cntrl.perBankRdBursts::13               68                       # Per bank write bursts
system.mem_cntrl.perBankRdBursts::14              115                       # Per bank write bursts
system.mem_cntrl.perBankRdBursts::15               56                       # Per bank write bursts
system.mem_cntrl.perBankWrBursts::0                43                       # Per bank write bursts
system.mem_cntrl.perBankWrBursts::1                70                       # Per bank write bursts
system.mem_cntrl.perBankWrBursts::2                23                       # Per bank write bursts
system.mem_cntrl.perBankWrBursts::3                31                       # Per bank write bursts
system.mem_cntrl.perBankWrBursts::4                 7                       # Per bank write bursts
system.mem_cntrl.perBankWrBursts::5                19                       # Per bank write bursts
system.mem_cntrl.perBankWrBursts::6                35                       # Per bank write bursts
system.mem_cntrl.perBankWrBursts::7                17                       # Per bank write bursts
system.mem_cntrl.perBankWrBursts::8                24                       # Per bank write bursts
system.mem_cntrl.perBankWrBursts::9                83                       # Per bank write bursts
system.mem_cntrl.perBankWrBursts::10               50                       # Per bank write bursts
system.mem_cntrl.perBankWrBursts::11               28                       # Per bank write bursts
system.mem_cntrl.perBankWrBursts::12               21                       # Per bank write bursts
system.mem_cntrl.perBankWrBursts::13               36                       # Per bank write bursts
system.mem_cntrl.perBankWrBursts::14               24                       # Per bank write bursts
system.mem_cntrl.perBankWrBursts::15               25                       # Per bank write bursts
system.mem_cntrl.numRdRetry                         0                       # Number of times read queue was full causing retry
system.mem_cntrl.numWrRetry                         0                       # Number of times write queue was full causing retry
system.mem_cntrl.totGap                    1215596500                       # Total gap between requests
system.mem_cntrl.readPktSize::0                     0                       # Read request sizes (log2)
system.mem_cntrl.readPktSize::1                     0                       # Read request sizes (log2)
system.mem_cntrl.readPktSize::2                     0                       # Read request sizes (log2)
system.mem_cntrl.readPktSize::3                  1941                       # Read request sizes (log2)
system.mem_cntrl.readPktSize::4                     0                       # Read request sizes (log2)
system.mem_cntrl.readPktSize::5                     0                       # Read request sizes (log2)
system.mem_cntrl.readPktSize::6                  1161                       # Read request sizes (log2)
system.mem_cntrl.writePktSize::0                    0                       # Write request sizes (log2)
system.mem_cntrl.writePktSize::1                    0                       # Write request sizes (log2)
system.mem_cntrl.writePktSize::2                    0                       # Write request sizes (log2)
system.mem_cntrl.writePktSize::3                    0                       # Write request sizes (log2)
system.mem_cntrl.writePktSize::4                    0                       # Write request sizes (log2)
system.mem_cntrl.writePktSize::5                    0                       # Write request sizes (log2)
system.mem_cntrl.writePktSize::6                  525                       # Write request sizes (log2)
system.mem_cntrl.rdQLenPdf::0                    2889                       # What read queue length does an incoming req see
system.mem_cntrl.rdQLenPdf::1                     190                       # What read queue length does an incoming req see
system.mem_cntrl.rdQLenPdf::2                      20                       # What read queue length does an incoming req see
system.mem_cntrl.rdQLenPdf::3                       1                       # What read queue length does an incoming req see
system.mem_cntrl.rdQLenPdf::4                       0                       # What read queue length does an incoming req see
system.mem_cntrl.rdQLenPdf::5                       0                       # What read queue length does an incoming req see
system.mem_cntrl.rdQLenPdf::6                       0                       # What read queue length does an incoming req see
system.mem_cntrl.rdQLenPdf::7                       0                       # What read queue length does an incoming req see
system.mem_cntrl.rdQLenPdf::8                       0                       # What read queue length does an incoming req see
system.mem_cntrl.rdQLenPdf::9                       0                       # What read queue length does an incoming req see
system.mem_cntrl.rdQLenPdf::10                      0                       # What read queue length does an incoming req see
system.mem_cntrl.rdQLenPdf::11                      0                       # What read queue length does an incoming req see
system.mem_cntrl.rdQLenPdf::12                      0                       # What read queue length does an incoming req see
system.mem_cntrl.rdQLenPdf::13                      0                       # What read queue length does an incoming req see
system.mem_cntrl.rdQLenPdf::14                      0                       # What read queue length does an incoming req see
system.mem_cntrl.rdQLenPdf::15                      0                       # What read queue length does an incoming req see
system.mem_cntrl.rdQLenPdf::16                      0                       # What read queue length does an incoming req see
system.mem_cntrl.rdQLenPdf::17                      0                       # What read queue length does an incoming req see
system.mem_cntrl.rdQLenPdf::18                      0                       # What read queue length does an incoming req see
system.mem_cntrl.rdQLenPdf::19                      0                       # What read queue length does an incoming req see
system.mem_cntrl.rdQLenPdf::20                      0                       # What read queue length does an incoming req see
system.mem_cntrl.rdQLenPdf::21                      0                       # What read queue length does an incoming req see
system.mem_cntrl.rdQLenPdf::22                      0                       # What read queue length does an incoming req see
system.mem_cntrl.rdQLenPdf::23                      0                       # What read queue length does an incoming req see
system.mem_cntrl.rdQLenPdf::24                      0                       # What read queue length does an incoming req see
system.mem_cntrl.rdQLenPdf::25                      0                       # What read queue length does an incoming req see
system.mem_cntrl.rdQLenPdf::26                      0                       # What read queue length does an incoming req see
system.mem_cntrl.rdQLenPdf::27                      0                       # What read queue length does an incoming req see
system.mem_cntrl.rdQLenPdf::28                      0                       # What read queue length does an incoming req see
system.mem_cntrl.rdQLenPdf::29                      0                       # What read queue length does an incoming req see
system.mem_cntrl.rdQLenPdf::30                      0                       # What read queue length does an incoming req see
system.mem_cntrl.rdQLenPdf::31                      0                       # What read queue length does an incoming req see
system.mem_cntrl.wrQLenPdf::0                       0                       # What write queue length does an incoming req see
system.mem_cntrl.wrQLenPdf::1                       0                       # What write queue length does an incoming req see
system.mem_cntrl.wrQLenPdf::2                       0                       # What write queue length does an incoming req see
system.mem_cntrl.wrQLenPdf::3                       0                       # What write queue length does an incoming req see
system.mem_cntrl.wrQLenPdf::4                       0                       # What write queue length does an incoming req see
system.mem_cntrl.wrQLenPdf::5                       0                       # What write queue length does an incoming req see
system.mem_cntrl.wrQLenPdf::6                       0                       # What write queue length does an incoming req see
system.mem_cntrl.wrQLenPdf::7                       0                       # What write queue length does an incoming req see
system.mem_cntrl.wrQLenPdf::8                       0                       # What write queue length does an incoming req see
system.mem_cntrl.wrQLenPdf::9                       0                       # What write queue length does an incoming req see
system.mem_cntrl.wrQLenPdf::10                      0                       # What write queue length does an incoming req see
system.mem_cntrl.wrQLenPdf::11                      0                       # What write queue length does an incoming req see
system.mem_cntrl.wrQLenPdf::12                      0                       # What write queue length does an incoming req see
system.mem_cntrl.wrQLenPdf::13                      0                       # What write queue length does an incoming req see
system.mem_cntrl.wrQLenPdf::14                      0                       # What write queue length does an incoming req see
system.mem_cntrl.wrQLenPdf::15                     11                       # What write queue length does an incoming req see
system.mem_cntrl.wrQLenPdf::16                     11                       # What write queue length does an incoming req see
system.mem_cntrl.wrQLenPdf::17                     31                       # What write queue length does an incoming req see
system.mem_cntrl.wrQLenPdf::18                     32                       # What write queue length does an incoming req see
system.mem_cntrl.wrQLenPdf::19                     31                       # What write queue length does an incoming req see
system.mem_cntrl.wrQLenPdf::20                     31                       # What write queue length does an incoming req see
system.mem_cntrl.wrQLenPdf::21                     31                       # What write queue length does an incoming req see
system.mem_cntrl.wrQLenPdf::22                     31                       # What write queue length does an incoming req see
system.mem_cntrl.wrQLenPdf::23                     31                       # What write queue length does an incoming req see
system.mem_cntrl.wrQLenPdf::24                     31                       # What write queue length does an incoming req see
system.mem_cntrl.wrQLenPdf::25                     31                       # What write queue length does an incoming req see
system.mem_cntrl.wrQLenPdf::26                     31                       # What write queue length does an incoming req see
system.mem_cntrl.wrQLenPdf::27                     31                       # What write queue length does an incoming req see
system.mem_cntrl.wrQLenPdf::28                     31                       # What write queue length does an incoming req see
system.mem_cntrl.wrQLenPdf::29                     33                       # What write queue length does an incoming req see
system.mem_cntrl.wrQLenPdf::30                     33                       # What write queue length does an incoming req see
system.mem_cntrl.wrQLenPdf::31                     32                       # What write queue length does an incoming req see
system.mem_cntrl.wrQLenPdf::32                     32                       # What write queue length does an incoming req see
system.mem_cntrl.wrQLenPdf::33                      0                       # What write queue length does an incoming req see
system.mem_cntrl.wrQLenPdf::34                      0                       # What write queue length does an incoming req see
system.mem_cntrl.wrQLenPdf::35                      0                       # What write queue length does an incoming req see
system.mem_cntrl.wrQLenPdf::36                      0                       # What write queue length does an incoming req see
system.mem_cntrl.wrQLenPdf::37                      0                       # What write queue length does an incoming req see
system.mem_cntrl.wrQLenPdf::38                      0                       # What write queue length does an incoming req see
system.mem_cntrl.wrQLenPdf::39                      0                       # What write queue length does an incoming req see
system.mem_cntrl.wrQLenPdf::40                      0                       # What write queue length does an incoming req see
system.mem_cntrl.wrQLenPdf::41                      0                       # What write queue length does an incoming req see
system.mem_cntrl.wrQLenPdf::42                      0                       # What write queue length does an incoming req see
system.mem_cntrl.wrQLenPdf::43                      0                       # What write queue length does an incoming req see
system.mem_cntrl.wrQLenPdf::44                      0                       # What write queue length does an incoming req see
system.mem_cntrl.wrQLenPdf::45                      0                       # What write queue length does an incoming req see
system.mem_cntrl.wrQLenPdf::46                      0                       # What write queue length does an incoming req see
system.mem_cntrl.wrQLenPdf::47                      0                       # What write queue length does an incoming req see
system.mem_cntrl.wrQLenPdf::48                      0                       # What write queue length does an incoming req see
system.mem_cntrl.wrQLenPdf::49                      0                       # What write queue length does an incoming req see
system.mem_cntrl.wrQLenPdf::50                      0                       # What write queue length does an incoming req see
system.mem_cntrl.wrQLenPdf::51                      0                       # What write queue length does an incoming req see
system.mem_cntrl.wrQLenPdf::52                      0                       # What write queue length does an incoming req see
system.mem_cntrl.wrQLenPdf::53                      0                       # What write queue length does an incoming req see
system.mem_cntrl.wrQLenPdf::54                      0                       # What write queue length does an incoming req see
system.mem_cntrl.wrQLenPdf::55                      0                       # What write queue length does an incoming req see
system.mem_cntrl.wrQLenPdf::56                      0                       # What write queue length does an incoming req see
system.mem_cntrl.wrQLenPdf::57                      0                       # What write queue length does an incoming req see
system.mem_cntrl.wrQLenPdf::58                      0                       # What write queue length does an incoming req see
system.mem_cntrl.wrQLenPdf::59                      0                       # What write queue length does an incoming req see
system.mem_cntrl.wrQLenPdf::60                      0                       # What write queue length does an incoming req see
system.mem_cntrl.wrQLenPdf::61                      0                       # What write queue length does an incoming req see
system.mem_cntrl.wrQLenPdf::62                      0                       # What write queue length does an incoming req see
system.mem_cntrl.wrQLenPdf::63                      0                       # What write queue length does an incoming req see
system.mem_cntrl.bytesPerActivate::samples         1078                       # Bytes accessed per row activation
system.mem_cntrl.bytesPerActivate::mean    216.163265                       # Bytes accessed per row activation
system.mem_cntrl.bytesPerActivate::gmean   134.677980                       # Bytes accessed per row activation
system.mem_cntrl.bytesPerActivate::stdev   257.978145                       # Bytes accessed per row activation
system.mem_cntrl.bytesPerActivate::0-127          523     48.52%     48.52% # Bytes accessed per row activation
system.mem_cntrl.bytesPerActivate::128-255          273     25.32%     73.84% # Bytes accessed per row activation
system.mem_cntrl.bytesPerActivate::256-383          106      9.83%     83.67% # Bytes accessed per row activation
system.mem_cntrl.bytesPerActivate::384-511           45      4.17%     87.85% # Bytes accessed per row activation
system.mem_cntrl.bytesPerActivate::512-639           26      2.41%     90.26% # Bytes accessed per row activation
system.mem_cntrl.bytesPerActivate::640-767           19      1.76%     92.02% # Bytes accessed per row activation
system.mem_cntrl.bytesPerActivate::768-895           16      1.48%     93.51% # Bytes accessed per row activation
system.mem_cntrl.bytesPerActivate::896-1023           13      1.21%     94.71% # Bytes accessed per row activation
system.mem_cntrl.bytesPerActivate::1024-1151           57      5.29%    100.00% # Bytes accessed per row activation
system.mem_cntrl.bytesPerActivate::total         1078                       # Bytes accessed per row activation
system.mem_cntrl.rdPerTurnAround::samples           32                       # Reads before turning the bus around for writes
system.mem_cntrl.rdPerTurnAround::mean      98.687500                       # Reads before turning the bus around for writes
system.mem_cntrl.rdPerTurnAround::gmean     72.783906                       # Reads before turning the bus around for writes
system.mem_cntrl.rdPerTurnAround::stdev     84.234097                       # Reads before turning the bus around for writes
system.mem_cntrl.rdPerTurnAround::16-31             4     12.50%     12.50% # Reads before turning the bus around for writes
system.mem_cntrl.rdPerTurnAround::32-47             9     28.12%     40.62% # Reads before turning the bus around for writes
system.mem_cntrl.rdPerTurnAround::48-63             4     12.50%     53.12% # Reads before turning the bus around for writes
system.mem_cntrl.rdPerTurnAround::64-79             3      9.38%     62.50% # Reads before turning the bus around for writes
system.mem_cntrl.rdPerTurnAround::96-111            2      6.25%     68.75% # Reads before turning the bus around for writes
system.mem_cntrl.rdPerTurnAround::112-127            1      3.12%     71.88% # Reads before turning the bus around for writes
system.mem_cntrl.rdPerTurnAround::128-143            2      6.25%     78.12% # Reads before turning the bus around for writes
system.mem_cntrl.rdPerTurnAround::144-159            1      3.12%     81.25% # Reads before turning the bus around for writes
system.mem_cntrl.rdPerTurnAround::160-175            1      3.12%     84.38% # Reads before turning the bus around for writes
system.mem_cntrl.rdPerTurnAround::192-207            1      3.12%     87.50% # Reads before turning the bus around for writes
system.mem_cntrl.rdPerTurnAround::272-287            3      9.38%     96.88% # Reads before turning the bus around for writes
system.mem_cntrl.rdPerTurnAround::304-319            1      3.12%    100.00% # Reads before turning the bus around for writes
system.mem_cntrl.rdPerTurnAround::total            32                       # Reads before turning the bus around for writes
system.mem_cntrl.wrPerTurnAround::samples           32                       # Writes before turning the bus around for reads
system.mem_cntrl.wrPerTurnAround::mean      16.750000                       # Writes before turning the bus around for reads
system.mem_cntrl.wrPerTurnAround::gmean     16.717496                       # Writes before turning the bus around for reads
system.mem_cntrl.wrPerTurnAround::stdev      1.077632                       # Writes before turning the bus around for reads
system.mem_cntrl.wrPerTurnAround::16               21     65.62%     65.62% # Writes before turning the bus around for reads
system.mem_cntrl.wrPerTurnAround::18                9     28.12%     93.75% # Writes before turning the bus around for reads
system.mem_cntrl.wrPerTurnAround::19                2      6.25%    100.00% # Writes before turning the bus around for reads
system.mem_cntrl.wrPerTurnAround::total            32                       # Writes before turning the bus around for reads
system.mem_cntrl.totQLat                     67540500                       # Total ticks spent queuing
system.mem_cntrl.totMemAccLat               125665500                       # Total ticks spent from burst creation until serviced by the DRAM
system.mem_cntrl.totBusLat                   15500000                       # Total ticks spent in databus transfers
system.mem_cntrl.avgQLat                     21787.26                       # Average queueing delay per DRAM burst
system.mem_cntrl.avgBusLat                    5000.00                       # Average bus latency per DRAM burst
system.mem_cntrl.avgMemAccLat                40537.26                       # Average memory access latency per DRAM burst
system.mem_cntrl.avgRdBW                       162.95                       # Average DRAM read bandwidth in MiByte/s
system.mem_cntrl.avgWrBW                        28.17                       # Average achieved write bandwidth in MiByte/s
system.mem_cntrl.avgRdBWSys                     73.78                       # Average system read bandwidth in MiByte/s
system.mem_cntrl.avgWrBWSys                     27.60                       # Average system write bandwidth in MiByte/s
system.mem_cntrl.peakBW                      12800.00                       # Theoretical peak bandwidth in MiByte/s
system.mem_cntrl.busUtil                         1.49                       # Data bus utilization in percentage
system.mem_cntrl.busUtilRead                     1.27                       # Data bus utilization in percentage for reads
system.mem_cntrl.busUtilWrite                    0.22                       # Data bus utilization in percentage for writes
system.mem_cntrl.avgRdQLen                       1.05                       # Average read queue length when enqueuing
system.mem_cntrl.avgWrQLen                      25.29                       # Average write queue length when enqueuing
system.mem_cntrl.readRowHits                     2294                       # Number of row buffer hits during reads
system.mem_cntrl.writeRowHits                     266                       # Number of row buffer hits during writes
system.mem_cntrl.readRowHitRate                 74.00                       # Row buffer hit rate for reads
system.mem_cntrl.writeRowHitRate                50.67                       # Row buffer hit rate for writes
system.mem_cntrl.avgGap                     335152.05                       # Average gap between requests
system.mem_cntrl.pageHitRate                    70.62                       # Row buffer hit rate, read and write combined
system.mem_cntrl_0.actEnergy                  4712400                       # Energy for activate commands per rank (pJ)
system.mem_cntrl_0.preEnergy                  2497110                       # Energy for precharge commands per rank (pJ)
system.mem_cntrl_0.readEnergy                13030500                       # Energy for read commands per rank (pJ)
system.mem_cntrl_0.writeEnergy                1278900                       # Energy for write commands per rank (pJ)
system.mem_cntrl_0.refreshEnergy         94654560.000000                       # Energy for refresh commands per rank (pJ)
system.mem_cntrl_0.actBackEnergy             51791340                       # Energy for active background per rank (pJ)
system.mem_cntrl_0.preBackEnergy              3349920                       # Energy for precharge background per rank (pJ)
system.mem_cntrl_0.actPowerDownEnergy       313201890                       # Energy for active power-down per rank (pJ)
system.mem_cntrl_0.prePowerDownEnergy       108849600                       # Energy for precharge power-down per rank (pJ)
system.mem_cntrl_0.selfRefreshEnergy         39383100                       # Energy for self refresh per rank (pJ)
system.mem_cntrl_0.totalEnergy              632749320                       # Total energy per rank (pJ)
system.mem_cntrl_0.averagePower            519.693399                       # Core power per rank (mW)
system.mem_cntrl_0.totalIdleTime           1095475500                       # Total Idle time Per DRAM Rank
system.mem_cntrl_0.memoryStateTime::IDLE      4698000                       # Time in different power states
system.mem_cntrl_0.memoryStateTime::REF      40136000                       # Time in different power states
system.mem_cntrl_0.memoryStateTime::SREF    129578750                       # Time in different power states
system.mem_cntrl_0.memoryStateTime::PRE_PDN    283094000                       # Time in different power states
system.mem_cntrl_0.memoryStateTime::ACT      77190500                       # Time in different power states
system.mem_cntrl_0.memoryStateTime::ACT_PDN    684908250                       # Time in different power states
system.mem_cntrl_1.actEnergy                  3013080                       # Energy for activate commands per rank (pJ)
system.mem_cntrl_1.preEnergy                  1593900                       # Energy for precharge commands per rank (pJ)
system.mem_cntrl_1.readEnergy                 9182040                       # Energy for read commands per rank (pJ)
system.mem_cntrl_1.writeEnergy                1519020                       # Energy for write commands per rank (pJ)
system.mem_cntrl_1.refreshEnergy         92196000.000000                       # Energy for refresh commands per rank (pJ)
system.mem_cntrl_1.actBackEnergy             49015440                       # Energy for active background per rank (pJ)
system.mem_cntrl_1.preBackEnergy              6729600                       # Energy for precharge background per rank (pJ)
system.mem_cntrl_1.actPowerDownEnergy       270961470                       # Energy for active power-down per rank (pJ)
system.mem_cntrl_1.prePowerDownEnergy       110333760                       # Energy for precharge power-down per rank (pJ)
system.mem_cntrl_1.selfRefreshEnergy         63589320                       # Energy for self refresh per rank (pJ)
system.mem_cntrl_1.totalEnergy              608134110                       # Total energy per rank (pJ)
system.mem_cntrl_1.averagePower            499.476290                       # Core power per rank (mW)
system.mem_cntrl_1.totalIdleTime           1088933500                       # Total Idle time Per DRAM Rank
system.mem_cntrl_1.memoryStateTime::IDLE     13740500                       # Time in different power states
system.mem_cntrl_1.memoryStateTime::REF      39144000                       # Time in different power states
system.mem_cntrl_1.memoryStateTime::SREF    212032500                       # Time in different power states
system.mem_cntrl_1.memoryStateTime::PRE_PDN    286632750                       # Time in different power states
system.mem_cntrl_1.memoryStateTime::ACT      72113000                       # Time in different power states
system.mem_cntrl_1.memoryStateTime::ACT_PDN    594113000                       # Time in different power states
system.pwrStateResidencyTicks::UNDEFINED 4807224293500                       # Cumulative time (in ticks) in various power states
system.apicbridge.pwrStateResidencyTicks::UNDEFINED 4807224293500                       # Cumulative time (in ticks) in various power states
system.bridge.pwrStateResidencyTicks::UNDEFINED 4807224293500                       # Cumulative time (in ticks) in various power states
system.cpu.branchPred.lookups                  442590                       # Number of BP lookups
system.cpu.branchPred.condPredicted            442590                       # Number of conditional branches predicted
system.cpu.branchPred.condIncorrect             48303                       # Number of conditional branches incorrect
system.cpu.branchPred.BTBLookups               378203                       # Number of BTB lookups
system.cpu.branchPred.BTBHits                       0                       # Number of BTB hits
system.cpu.branchPred.BTBCorrect                    0                       # Number of correct BTB predictions (this stat may not work properly.
system.cpu.branchPred.BTBHitPct              0.000000                       # BTB Hit Percentage
system.cpu.branchPred.usedRAS                   42404                       # Number of times the RAS was used to get a target.
system.cpu.branchPred.RASInCorrect               9017                       # Number of incorrect RAS predictions.
system.cpu.branchPred.correctpredictionPercent    89.086288                       # Correct prediction percentage
system.cpu.branchPred.indirectLookups          378203                       # Number of indirect predictor lookups.
system.cpu.branchPred.indirectHits             139235                       # Number of indirect target hits.
system.cpu.branchPred.indirectMisses           238968                       # Number of indirect misses.
system.cpu.branchPredindirectMispredicted        31220                       # Number of mispredicted indirect branches.
system.cpu.dtb.walker.pwrStateResidencyTicks::UNDEFINED 4807224293500                       # Cumulative time (in ticks) in various power states
system.cpu.dtb.rdAccesses                      359947                       # TLB accesses on read requests
system.cpu.dtb.wrAccesses                      226868                       # TLB accesses on write requests
system.cpu.dtb.rdMisses                          9104                       # TLB misses on read requests
system.cpu.dtb.wrMisses                          1888                       # TLB misses on write requests
system.cpu.apic_clk_domain.clock                 8000                       # Clock period in ticks
system.cpu.interrupts.pwrStateResidencyTicks::UNDEFINED 4807224293500                       # Cumulative time (in ticks) in various power states
system.cpu.itb.walker.pwrStateResidencyTicks::UNDEFINED 4807224293500                       # Cumulative time (in ticks) in various power states
system.cpu.itb.rdAccesses                           0                       # TLB accesses on read requests
system.cpu.itb.wrAccesses                      278256                       # TLB accesses on write requests
system.cpu.itb.rdMisses                             0                       # TLB misses on read requests
system.cpu.itb.wrMisses                          1284                       # TLB misses on write requests
system.cpu.pwrStateResidencyTicks::ON      2460274500                       # Cumulative time (in ticks) in various power states
system.cpu.numCycles                          2435087                       # number of cpu cycles simulated
system.cpu.numWorkItemsStarted                      0                       # number of work items this cpu started
system.cpu.numWorkItemsCompleted                    0                       # number of work items this cpu completed
system.cpu.fetch.icacheStallCycles             563773                       # Number of cycles fetch is stalled on an Icache miss
system.cpu.fetch.Insts                        1941154                       # Number of instructions fetch has processed
system.cpu.fetch.Branches                      442590                       # Number of branches that fetch encountered
system.cpu.fetch.predictedBranches             181639                       # Number of branches that fetch has predicted taken
system.cpu.fetch.Cycles                       1598657                       # Number of cycles fetch has run and was not squashing or blocked
system.cpu.fetch.SquashCycles                  105198                       # Number of cycles fetch has spent squashing
system.cpu.fetch.TlbCycles                      46771                       # Number of cycles fetch has spent waiting for tlb
system.cpu.fetch.MiscStallCycles                 1452                       # Number of cycles fetch has spent waiting on interrupts, or bad addresses, or out of MSHRs
system.cpu.fetch.PendingTrapStallCycles         34640                       # Number of stall cycles due to pending traps
system.cpu.fetch.PendingQuiesceStallCycles           19                       # Number of stall cycles due to pending quiesce instructions
system.cpu.fetch.IcacheWaitRetryStallCycles           13                       # Number of stall cycles due to full MSHR
system.cpu.fetch.CacheLines                    272845                       # Number of cache lines fetched
system.cpu.fetch.IcacheSquashes                 18544                       # Number of outstanding Icache misses that were squashed
system.cpu.fetch.ItlbSquashes                     602                       # Number of outstanding ITLB misses that were squashed
system.cpu.fetch.rateDist::samples            2297924                       # Number of instructions fetched each cycle (Total)
system.cpu.fetch.rateDist::mean              1.695420                       # Number of instructions fetched each cycle (Total)
system.cpu.fetch.rateDist::stdev             3.052571                       # Number of instructions fetched each cycle (Total)
system.cpu.fetch.rateDist::underflows               0      0.00%      0.00% # Number of instructions fetched each cycle (Total)
system.cpu.fetch.rateDist::0                  1665566     72.48%     72.48% # Number of instructions fetched each cycle (Total)
system.cpu.fetch.rateDist::1                    60990      2.65%     75.14% # Number of instructions fetched each cycle (Total)
system.cpu.fetch.rateDist::2                    30347      1.32%     76.46% # Number of instructions fetched each cycle (Total)
system.cpu.fetch.rateDist::3                    38781      1.69%     78.14% # Number of instructions fetched each cycle (Total)
system.cpu.fetch.rateDist::4                    39136      1.70%     79.85% # Number of instructions fetched each cycle (Total)
system.cpu.fetch.rateDist::5                    33717      1.47%     81.31% # Number of instructions fetched each cycle (Total)
system.cpu.fetch.rateDist::6                    35522      1.55%     82.86% # Number of instructions fetched each cycle (Total)
system.cpu.fetch.rateDist::7                    31261      1.36%     84.22% # Number of instructions fetched each cycle (Total)
system.cpu.fetch.rateDist::8                   362604     15.78%    100.00% # Number of instructions fetched each cycle (Total)
system.cpu.fetch.rateDist::overflows                0      0.00%    100.00% # Number of instructions fetched each cycle (Total)
system.cpu.fetch.rateDist::min_value                0                       # Number of instructions fetched each cycle (Total)
system.cpu.fetch.rateDist::max_value                8                       # Number of instructions fetched each cycle (Total)
system.cpu.fetch.rateDist::total              2297924                       # Number of instructions fetched each cycle (Total)
system.cpu.fetch.branchRate                  0.181755                       # Number of branch fetches per cycle
system.cpu.fetch.rate                        0.797160                       # Number of inst fetches per cycle
system.cpu.decode.IdleCycles                   533248                       # Number of cycles decode is idle
system.cpu.decode.BlockedCycles               1192741                       # Number of cycles decode is blocked
system.cpu.decode.RunCycles                    454840                       # Number of cycles decode is running
system.cpu.decode.UnblockCycles                 64496                       # Number of cycles decode is unblocking
system.cpu.decode.SquashCycles                  52599                       # Number of cycles decode is squashing
system.cpu.decode.DecodedInsts                3485940                       # Number of instructions handled by decode
system.cpu.rename.SquashCycles                  52599                       # Number of cycles rename is squashing
system.cpu.rename.IdleCycles                   575195                       # Number of cycles rename is idle
system.cpu.rename.BlockCycles                  537213                       # Number of cycles rename is blocking
system.cpu.rename.serializeStallCycles         356694                       # count of cycles rename stalled for serializing inst
system.cpu.rename.RunCycles                    471643                       # Number of cycles rename is running
system.cpu.rename.UnblockCycles                304580                       # Number of cycles rename is unblocking
system.cpu.rename.RenamedInsts                3278980                       # Number of instructions processed by rename
system.cpu.rename.ROBFullEvents                  3935                       # Number of times rename has blocked due to ROB full
system.cpu.rename.IQFullEvents                  27386                       # Number of times rename has blocked due to IQ full
system.cpu.rename.LQFullEvents                  25640                       # Number of times rename has blocked due to LQ full
system.cpu.rename.SQFullEvents                 230168                       # Number of times rename has blocked due to SQ full
system.cpu.rename.RenamedOperands             3619877                       # Number of destination operands rename has renamed
system.cpu.rename.RenameLookups               8281774                       # Number of register rename lookups that rename has made
system.cpu.rename.int_rename_lookups          5064947                       # Number of integer rename lookups
system.cpu.rename.fp_rename_lookups             13447                       # Number of floating rename lookups
system.cpu.rename.CommittedMaps               1983229                       # Number of HB maps that are committed
system.cpu.rename.UndoneMaps                  1636648                       # Number of HB maps that are undone due to squashing
system.cpu.rename.serializingInsts              13898                       # count of serializing insts renamed
system.cpu.rename.tempSerializingInsts          13903                       # count of temporary serializing insts renamed
system.cpu.rename.skidInsts                    286058                       # count of insts added to the skid buffer
system.cpu.memDep0.insertedLoads               435684                       # Number of loads inserted to the mem dependence unit.
system.cpu.memDep0.insertedStores              272239                       # Number of stores inserted to the mem dependence unit.
system.cpu.memDep0.conflictingLoads             28837                       # Number of conflicting loads.
system.cpu.memDep0.conflictingStores            29997                       # Number of conflicting stores.
system.cpu.iq.iqInstsAdded                    2927655                       # Number of instructions added to the IQ (excludes non-spec)
system.cpu.iq.iqNonSpecInstsAdded               16249                       # Number of non-speculative instructions added to the IQ
system.cpu.iq.iqInstsIssued                   2538021                       # Number of instructions issued
system.cpu.iq.iqSquashedInstsIssued             18113                       # Number of squashed instructions issued
system.cpu.iq.iqSquashedInstsExamined         1168544                       # Number of squashed instructions iterated over during squash; mainly for profiling
system.cpu.iq.iqSquashedOperandsExamined      1732538                       # Number of squashed operands that are examined and possibly removed from graph
system.cpu.iq.iqSquashedNonSpecRemoved           4544                       # Number of squashed non-spec instructions that were removed
system.cpu.iq.issued_per_cycle::samples       2297924                       # Number of insts issued each cycle
system.cpu.iq.issued_per_cycle::mean         1.104484                       # Number of insts issued each cycle
system.cpu.iq.issued_per_cycle::stdev        1.975489                       # Number of insts issued each cycle
system.cpu.iq.issued_per_cycle::underflows            0      0.00%      0.00% # Number of insts issued each cycle
system.cpu.iq.issued_per_cycle::0             1543522     67.17%     67.17% # Number of insts issued each cycle
system.cpu.iq.issued_per_cycle::1              193281      8.41%     75.58% # Number of insts issued each cycle
system.cpu.iq.issued_per_cycle::2              129658      5.64%     81.22% # Number of insts issued each cycle
system.cpu.iq.issued_per_cycle::3              106740      4.65%     85.87% # Number of insts issued each cycle
system.cpu.iq.issued_per_cycle::4               95551      4.16%     90.03% # Number of insts issued each cycle
system.cpu.iq.issued_per_cycle::5               84119      3.66%     93.69% # Number of insts issued each cycle
system.cpu.iq.issued_per_cycle::6               76752      3.34%     97.03% # Number of insts issued each cycle
system.cpu.iq.issued_per_cycle::7               44515      1.94%     98.96% # Number of insts issued each cycle
system.cpu.iq.issued_per_cycle::8               23786      1.04%    100.00% # Number of insts issued each cycle
system.cpu.iq.issued_per_cycle::overflows            0      0.00%    100.00% # Number of insts issued each cycle
system.cpu.iq.issued_per_cycle::min_value            0                       # Number of insts issued each cycle
system.cpu.iq.issued_per_cycle::max_value            8                       # Number of insts issued each cycle
system.cpu.iq.issued_per_cycle::total         2297924                       # Number of insts issued each cycle
system.cpu.iq.fu_full::No_OpClass                   0      0.00%      0.00% # attempts to use FU when none available
system.cpu.iq.fu_full::IntAlu                   23788     64.90%     64.90% # attempts to use FU when none available
system.cpu.iq.fu_full::IntMult                      0      0.00%     64.90% # attempts to use FU when none available
system.cpu.iq.fu_full::IntDiv                       0      0.00%     64.90% # attempts to use FU when none available
system.cpu.iq.fu_full::FloatAdd                    67      0.18%     65.08% # attempts to use FU when none available
system.cpu.iq.fu_full::FloatCmp                     0      0.00%     65.08% # attempts to use FU when none available
system.cpu.iq.fu_full::FloatCvt                     0      0.00%     65.08% # attempts to use FU when none available
system.cpu.iq.fu_full::FloatMult                    0      0.00%     65.08% # attempts to use FU when none available
system.cpu.iq.fu_full::FloatMultAcc                 0      0.00%     65.08% # attempts to use FU when none available
system.cpu.iq.fu_full::FloatDiv                     0      0.00%     65.08% # attempts to use FU when none available
system.cpu.iq.fu_full::FloatMisc                    0      0.00%     65.08% # attempts to use FU when none available
system.cpu.iq.fu_full::FloatSqrt                    0      0.00%     65.08% # attempts to use FU when none available
system.cpu.iq.fu_full::SimdAdd                      0      0.00%     65.08% # attempts to use FU when none available
system.cpu.iq.fu_full::SimdAddAcc                   0      0.00%     65.08% # attempts to use FU when none available
system.cpu.iq.fu_full::SimdAlu                      0      0.00%     65.08% # attempts to use FU when none available
system.cpu.iq.fu_full::SimdCmp                      0      0.00%     65.08% # attempts to use FU when none available
system.cpu.iq.fu_full::SimdCvt                      0      0.00%     65.08% # attempts to use FU when none available
system.cpu.iq.fu_full::SimdMisc                     0      0.00%     65.08% # attempts to use FU when none available
system.cpu.iq.fu_full::SimdMult                     0      0.00%     65.08% # attempts to use FU when none available
system.cpu.iq.fu_full::SimdMultAcc                  0      0.00%     65.08% # attempts to use FU when none available
system.cpu.iq.fu_full::SimdShift                    0      0.00%     65.08% # attempts to use FU when none available
system.cpu.iq.fu_full::SimdShiftAcc                 0      0.00%     65.08% # attempts to use FU when none available
system.cpu.iq.fu_full::SimdSqrt                     0      0.00%     65.08% # attempts to use FU when none available
system.cpu.iq.fu_full::SimdFloatAdd                 0      0.00%     65.08% # attempts to use FU when none available
system.cpu.iq.fu_full::SimdFloatAlu                 0      0.00%     65.08% # attempts to use FU when none available
system.cpu.iq.fu_full::SimdFloatCmp                 0      0.00%     65.08% # attempts to use FU when none available
system.cpu.iq.fu_full::SimdFloatCvt                 0      0.00%     65.08% # attempts to use FU when none available
system.cpu.iq.fu_full::SimdFloatDiv                 0      0.00%     65.08% # attempts to use FU when none available
system.cpu.iq.fu_full::SimdFloatMisc                0      0.00%     65.08% # attempts to use FU when none available
system.cpu.iq.fu_full::SimdFloatMult                0      0.00%     65.08% # attempts to use FU when none available
system.cpu.iq.fu_full::SimdFloatMultAcc             0      0.00%     65.08% # attempts to use FU when none available
system.cpu.iq.fu_full::SimdFloatSqrt                0      0.00%     65.08% # attempts to use FU when none available
system.cpu.iq.fu_full::MemRead                   9071     24.75%     89.83% # attempts to use FU when none available
system.cpu.iq.fu_full::MemWrite                  3685     10.05%     99.88% # attempts to use FU when none available
system.cpu.iq.fu_full::FloatMemRead                26      0.07%     99.95% # attempts to use FU when none available
system.cpu.iq.fu_full::FloatMemWrite               18      0.05%    100.00% # attempts to use FU when none available
system.cpu.iq.fu_full::IprAccess                    0      0.00%    100.00% # attempts to use FU when none available
system.cpu.iq.fu_full::InstPrefetch                 0      0.00%    100.00% # attempts to use FU when none available
system.cpu.iq.FU_type_0::No_OpClass             33585      1.32%      1.32% # Type of FU issued
system.cpu.iq.FU_type_0::IntAlu               1881190     74.12%     75.44% # Type of FU issued
system.cpu.iq.FU_type_0::IntMult                 1449      0.06%     75.50% # Type of FU issued
system.cpu.iq.FU_type_0::IntDiv                  1931      0.08%     75.58% # Type of FU issued
system.cpu.iq.FU_type_0::FloatAdd                3207      0.13%     75.70% # Type of FU issued
system.cpu.iq.FU_type_0::FloatCmp                   0      0.00%     75.70% # Type of FU issued
system.cpu.iq.FU_type_0::FloatCvt                   0      0.00%     75.70% # Type of FU issued
system.cpu.iq.FU_type_0::FloatMult                  0      0.00%     75.70% # Type of FU issued
system.cpu.iq.FU_type_0::FloatMultAcc               0      0.00%     75.70% # Type of FU issued
system.cpu.iq.FU_type_0::FloatDiv                   0      0.00%     75.70% # Type of FU issued
system.cpu.iq.FU_type_0::FloatMisc                  0      0.00%     75.70% # Type of FU issued
system.cpu.iq.FU_type_0::FloatSqrt                  0      0.00%     75.70% # Type of FU issued
system.cpu.iq.FU_type_0::SimdAdd                    0      0.00%     75.70% # Type of FU issued
system.cpu.iq.FU_type_0::SimdAddAcc                 0      0.00%     75.70% # Type of FU issued
system.cpu.iq.FU_type_0::SimdAlu                    0      0.00%     75.70% # Type of FU issued
system.cpu.iq.FU_type_0::SimdCmp                    0      0.00%     75.70% # Type of FU issued
system.cpu.iq.FU_type_0::SimdCvt                    0      0.00%     75.70% # Type of FU issued
system.cpu.iq.FU_type_0::SimdMisc                   0      0.00%     75.70% # Type of FU issued
system.cpu.iq.FU_type_0::SimdMult                   0      0.00%     75.70% # Type of FU issued
system.cpu.iq.FU_type_0::SimdMultAcc                0      0.00%     75.70% # Type of FU issued
system.cpu.iq.FU_type_0::SimdShift                  0      0.00%     75.70% # Type of FU issued
system.cpu.iq.FU_type_0::SimdShiftAcc               0      0.00%     75.70% # Type of FU issued
system.cpu.iq.FU_type_0::SimdSqrt                   0      0.00%     75.70% # Type of FU issued
system.cpu.iq.FU_type_0::SimdFloatAdd               0      0.00%     75.70% # Type of FU issued
system.cpu.iq.FU_type_0::SimdFloatAlu               0      0.00%     75.70% # Type of FU issued
system.cpu.iq.FU_type_0::SimdFloatCmp               0      0.00%     75.70% # Type of FU issued
system.cpu.iq.FU_type_0::SimdFloatCvt               0      0.00%     75.70% # Type of FU issued
system.cpu.iq.FU_type_0::SimdFloatDiv               0      0.00%     75.70% # Type of FU issued
system.cpu.iq.FU_type_0::SimdFloatMisc              0      0.00%     75.70% # Type of FU issued
system.cpu.iq.FU_type_0::SimdFloatMult              0      0.00%     75.70% # Type of FU issued
system.cpu.iq.FU_type_0::SimdFloatMultAcc            0      0.00%     75.70% # Type of FU issued
system.cpu.iq.FU_type_0::SimdFloatSqrt              0      0.00%     75.70% # Type of FU issued
system.cpu.iq.FU_type_0::MemRead               378075     14.90%     90.60% # Type of FU issued
system.cpu.iq.FU_type_0::MemWrite              237004      9.34%     99.94% # Type of FU issued
system.cpu.iq.FU_type_0::FloatMemRead            1504      0.06%    100.00% # Type of FU issued
system.cpu.iq.FU_type_0::FloatMemWrite             76      0.00%    100.00% # Type of FU issued
system.cpu.iq.FU_type_0::IprAccess                  0      0.00%    100.00% # Type of FU issued
system.cpu.iq.FU_type_0::InstPrefetch               0      0.00%    100.00% # Type of FU issued
system.cpu.iq.FU_type_0::total                2538021                       # Type of FU issued
system.cpu.iq.rate                           1.042271                       # Inst issue rate
system.cpu.iq.fu_busy_cnt                       36655                       # FU busy when requested
system.cpu.iq.fu_busy_rate                   0.014442                       # FU busy rate (busy events/executed inst)
system.cpu.iq.int_inst_queue_reads            7418469                       # Number of integer instruction queue reads
system.cpu.iq.int_inst_queue_writes           4101284                       # Number of integer instruction queue writes
system.cpu.iq.int_inst_queue_wakeup_accesses      2378817                       # Number of integer instruction queue wakeup accesses
system.cpu.iq.fp_inst_queue_reads               10264                       # Number of floating instruction queue reads
system.cpu.iq.fp_inst_queue_writes              12352                       # Number of floating instruction queue writes
system.cpu.iq.fp_inst_queue_wakeup_accesses         4181                       # Number of floating instruction queue wakeup accesses
system.cpu.iq.int_alu_accesses                2536020                       # Number of integer alu accesses
system.cpu.iq.fp_alu_accesses                    5071                       # Number of floating point alu accesses
system.cpu.iew.lsq.thread0.forwLoads            32888                       # Number of loads that had data forwarded from stores
system.cpu.iew.lsq.thread0.invAddrLoads             0                       # Number of loads ignored due to an invalid address
system.cpu.iew.lsq.thread0.squashedLoads       175719                       # Number of loads squashed
system.cpu.iew.lsq.thread0.ignoredResponses          646                       # Number of memory responses ignored because the instruction is squashed
system.cpu.iew.lsq.thread0.memOrderViolation         1215                       # Number of memory ordering violations
system.cpu.iew.lsq.thread0.squashedStores        80933                       # Number of stores squashed
system.cpu.iew.lsq.thread0.invAddrSwpfs             0                       # Number of software prefetches ignored due to an invalid address
system.cpu.iew.lsq.thread0.blockedLoads             0                       # Number of blocked loads due to partial load-store forwarding
system.cpu.iew.lsq.thread0.rescheduledLoads         1405                       # Number of loads that were rescheduled
system.cpu.iew.lsq.thread0.cacheBlocked          2366                       # Number of times an access to memory failed due to the cache being blocked
system.cpu.iew.iewIdleCycles                        0                       # Number of cycles IEW is idle
system.cpu.iew.iewSquashCycles                  52599                       # Number of cycles IEW is squashing
system.cpu.iew.iewBlockCycles                  290912                       # Number of cycles IEW is blocking
system.cpu.iew.iewUnblockCycles                134711                       # Number of cycles IEW is unblocking
system.cpu.iew.iewDispatchedInsts             2943904                       # Number of instructions dispatched to IQ
system.cpu.iew.iewDispSquashedInsts              5065                       # Number of squashed instructions skipped by dispatch
system.cpu.iew.iewDispLoadInsts                435684                       # Number of dispatched load instructions
system.cpu.iew.iewDispStoreInsts               272239                       # Number of dispatched store instructions
system.cpu.iew.iewDispNonSpecInsts              14799                       # Number of dispatched non-speculative instructions
system.cpu.iew.iewIQFullEvents                   1135                       # Number of times the IQ has become full, causing a stall
system.cpu.iew.iewLSQFullEvents                133055                       # Number of times the LSQ has become full, causing a stall
system.cpu.iew.memOrderViolationEvents           1215                       # Number of memory order violations
system.cpu.iew.predictedTakenIncorrect          19341                       # Number of branches that were predicted taken incorrectly
system.cpu.iew.predictedNotTakenIncorrect        44433                       # Number of branches that were predicted not taken incorrectly
system.cpu.iew.branchMispredicts                63774                       # Number of branch mispredicts detected at execute
system.cpu.iew.iewExecutedInsts               2428647                       # Number of executed instructions
system.cpu.iew.iewExecLoadInsts                350819                       # Number of load instructions executed
system.cpu.iew.iewExecSquashedInsts             98506                       # Number of squashed instructions skipped in execute
system.cpu.iew.exec_swp                             0                       # number of swp insts executed
system.cpu.iew.exec_nop                             0                       # number of nop insts executed
system.cpu.iew.exec_refs                       575805                       # number of memory reference insts executed
system.cpu.iew.exec_branches                   242283                       # Number of branches executed
system.cpu.iew.exec_stores                     224986                       # Number of stores executed
system.cpu.iew.exec_rate                     0.997355                       # Inst execution rate
system.cpu.iew.wb_sent                        2399408                       # cumulative count of insts sent to commit
system.cpu.iew.wb_count                       2382998                       # cumulative count of insts written-back
system.cpu.iew.wb_producers                   1575421                       # num instructions producing a value
system.cpu.iew.wb_consumers                   2533806                       # num instructions consuming a value
system.cpu.iew.wb_rate                       0.978609                       # insts written-back per cycle
system.cpu.iew.wb_fanout                     0.621761                       # average fanout of values written-back
system.cpu.commit.commitSquashedInsts         1167310                       # The number of squashed insts skipped by commit
system.cpu.commit.commitNonSpecStalls           11705                       # The number of times commit has been forced to stall to communicate backwards
system.cpu.commit.branchMispredicts             50067                       # The number of times a branch was mispredicted
system.cpu.commit.committed_per_cycle::samples      2110911                       # Number of insts commited each cycle
system.cpu.commit.committed_per_cycle::mean     0.841040                       # Number of insts commited each cycle
system.cpu.commit.committed_per_cycle::stdev     1.927436                       # Number of insts commited each cycle
system.cpu.commit.committed_per_cycle::underflows            0      0.00%      0.00% # Number of insts commited each cycle
system.cpu.commit.committed_per_cycle::0      1576993     74.71%     74.71% # Number of insts commited each cycle
system.cpu.commit.committed_per_cycle::1       189128      8.96%     83.67% # Number of insts commited each cycle
system.cpu.commit.committed_per_cycle::2        77675      3.68%     87.35% # Number of insts commited each cycle
system.cpu.commit.committed_per_cycle::3        80131      3.80%     91.14% # Number of insts commited each cycle
system.cpu.commit.committed_per_cycle::4        44087      2.09%     93.23% # Number of insts commited each cycle
system.cpu.commit.committed_per_cycle::5        27347      1.30%     94.53% # Number of insts commited each cycle
system.cpu.commit.committed_per_cycle::6        17416      0.83%     95.35% # Number of insts commited each cycle
system.cpu.commit.committed_per_cycle::7        12162      0.58%     95.93% # Number of insts commited each cycle
system.cpu.commit.committed_per_cycle::8        85972      4.07%    100.00% # Number of insts commited each cycle
system.cpu.commit.committed_per_cycle::overflows            0      0.00%    100.00% # Number of insts commited each cycle
system.cpu.commit.committed_per_cycle::min_value            0                       # Number of insts commited each cycle
system.cpu.commit.committed_per_cycle::max_value            8                       # Number of insts commited each cycle
system.cpu.commit.committed_per_cycle::total      2110911                       # Number of insts commited each cycle
system.cpu.commit.committedInsts               948724                       # Number of instructions committed
system.cpu.commit.committedOps                1775360                       # Number of ops (including micro ops) committed
system.cpu.commit.swp_count                         0                       # Number of s/w prefetches committed
system.cpu.commit.refs                         451271                       # Number of memory references committed
system.cpu.commit.loads                        259965                       # Number of loads committed
system.cpu.commit.membars                        1132                       # Number of memory barriers committed
system.cpu.commit.branches                     190302                       # Number of branches committed
system.cpu.commit.vec_insts                         0                       # Number of committed Vector instructions.
system.cpu.commit.fp_insts                       2404                       # Number of committed floating point instructions.
system.cpu.commit.int_insts                   1757593                       # Number of committed integer instructions.
system.cpu.commit.function_calls                19967                       # Number of function calls committed.
system.cpu.commit.op_class_0::No_OpClass        14778      0.83%      0.83% # Class of committed instruction
system.cpu.commit.op_class_0::IntAlu          1304563     73.48%     74.31% # Class of committed instruction
system.cpu.commit.op_class_0::IntMult            1278      0.07%     74.39% # Class of committed instruction
system.cpu.commit.op_class_0::IntDiv             1648      0.09%     74.48% # Class of committed instruction
system.cpu.commit.op_class_0::FloatAdd           1822      0.10%     74.58% # Class of committed instruction
system.cpu.commit.op_class_0::FloatCmp              0      0.00%     74.58% # Class of committed instruction
system.cpu.commit.op_class_0::FloatCvt              0      0.00%     74.58% # Class of committed instruction
system.cpu.commit.op_class_0::FloatMult             0      0.00%     74.58% # Class of committed instruction
system.cpu.commit.op_class_0::FloatMultAcc            0      0.00%     74.58% # Class of committed instruction
system.cpu.commit.op_class_0::FloatDiv              0      0.00%     74.58% # Class of committed instruction
system.cpu.commit.op_class_0::FloatMisc             0      0.00%     74.58% # Class of committed instruction
system.cpu.commit.op_class_0::FloatSqrt             0      0.00%     74.58% # Class of committed instruction
system.cpu.commit.op_class_0::SimdAdd               0      0.00%     74.58% # Class of committed instruction
system.cpu.commit.op_class_0::SimdAddAcc            0      0.00%     74.58% # Class of committed instruction
system.cpu.commit.op_class_0::SimdAlu               0      0.00%     74.58% # Class of committed instruction
system.cpu.commit.op_class_0::SimdCmp               0      0.00%     74.58% # Class of committed instruction
system.cpu.commit.op_class_0::SimdCvt               0      0.00%     74.58% # Class of committed instruction
system.cpu.commit.op_class_0::SimdMisc              0      0.00%     74.58% # Class of committed instruction
system.cpu.commit.op_class_0::SimdMult              0      0.00%     74.58% # Class of committed instruction
system.cpu.commit.op_class_0::SimdMultAcc            0      0.00%     74.58% # Class of committed instruction
system.cpu.commit.op_class_0::SimdShift             0      0.00%     74.58% # Class of committed instruction
system.cpu.commit.op_class_0::SimdShiftAcc            0      0.00%     74.58% # Class of committed instruction
system.cpu.commit.op_class_0::SimdSqrt              0      0.00%     74.58% # Class of committed instruction
system.cpu.commit.op_class_0::SimdFloatAdd            0      0.00%     74.58% # Class of committed instruction
system.cpu.commit.op_class_0::SimdFloatAlu            0      0.00%     74.58% # Class of committed instruction
system.cpu.commit.op_class_0::SimdFloatCmp            0      0.00%     74.58% # Class of committed instruction
system.cpu.commit.op_class_0::SimdFloatCvt            0      0.00%     74.58% # Class of committed instruction
system.cpu.commit.op_class_0::SimdFloatDiv            0      0.00%     74.58% # Class of committed instruction
system.cpu.commit.op_class_0::SimdFloatMisc            0      0.00%     74.58% # Class of committed instruction
system.cpu.commit.op_class_0::SimdFloatMult            0      0.00%     74.58% # Class of committed instruction
system.cpu.commit.op_class_0::SimdFloatMultAcc            0      0.00%     74.58% # Class of committed instruction
system.cpu.commit.op_class_0::SimdFloatSqrt            0      0.00%     74.58% # Class of committed instruction
system.cpu.commit.op_class_0::MemRead          259511     14.62%     89.20% # Class of committed instruction
system.cpu.commit.op_class_0::MemWrite         191306     10.78%     99.97% # Class of committed instruction
system.cpu.commit.op_class_0::FloatMemRead          454      0.03%    100.00% # Class of committed instruction
system.cpu.commit.op_class_0::FloatMemWrite            0      0.00%    100.00% # Class of committed instruction
system.cpu.commit.op_class_0::IprAccess             0      0.00%    100.00% # Class of committed instruction
system.cpu.commit.op_class_0::InstPrefetch            0      0.00%    100.00% # Class of committed instruction
system.cpu.commit.op_class_0::total           1775360                       # Class of committed instruction
system.cpu.commit.bw_lim_events                 85972                       # number cycles where commit BW limit reached
system.cpu.rob.rob_reads                      4962043                       # The number of ROB reads
system.cpu.rob.rob_writes                     6075291                       # The number of ROB writes
system.cpu.timesIdled                            7108                       # Number of times that the entire CPU went into an idle state and unscheduled itself
system.cpu.idleCycles                          137163                       # Total number of cycles that the CPU has spent unscheduled due to idling
system.cpu.committedInsts                      948724                       # Number of Instructions Simulated
system.cpu.committedOps                       1775360                       # Number of Ops (including micro ops) Simulated
system.cpu.cpi                               2.566697                       # CPI: Cycles Per Instruction
system.cpu.cpi_total                         2.566697                       # CPI: Total CPI of All Threads
system.cpu.ipc                               0.389606                       # IPC: Instructions Per Cycle
system.cpu.ipc_total                         0.389606                       # IPC: Total IPC of All Threads
system.cpu.int_regfile_reads                  3602017                       # number of integer regfile reads
system.cpu.int_regfile_writes                 1899222                       # number of integer regfile writes
system.cpu.fp_regfile_reads                      6777                       # number of floating regfile reads
system.cpu.fp_regfile_writes                     3601                       # number of floating regfile writes
system.cpu.cc_regfile_reads                   1108421                       # number of cc regfile reads
system.cpu.cc_regfile_writes                   711334                       # number of cc regfile writes
system.cpu.misc_regfile_reads                 1103141                       # number of misc regfile reads
system.cpu.misc_regfile_writes                  13121                       # number of misc regfile writes
system.cpu.dcache.tags.pwrStateResidencyTicks::UNDEFINED 4807224293500                       # Cumulative time (in ticks) in various power states
system.cpu.dcache.tags.replacements             21325                       # number of replacements
system.cpu.dcache.tags.tagsinuse                 1024                       # Cycle average of tags in use
system.cpu.dcache.tags.total_refs              457427                       # Total number of references to valid blocks.
system.cpu.dcache.tags.sampled_refs             21325                       # Sample count of references to valid blocks.
system.cpu.dcache.tags.avg_refs             21.450270                       # Average number of references to valid blocks.
system.cpu.dcache.tags.warmup_cycle                 0                       # Cycle when the warmup percentage was hit.
system.cpu.dcache.tags.occ_blocks::cpu.data         1024                       # Average occupied blocks per requestor
system.cpu.dcache.tags.occ_percent::cpu.data            1                       # Average percentage of cache occupancy
system.cpu.dcache.tags.occ_percent::total            1                       # Average percentage of cache occupancy
system.cpu.dcache.tags.occ_task_id_blocks::1024         1024                       # Occupied blocks per task id
system.cpu.dcache.tags.age_task_id_blocks_1024::0           58                       # Occupied blocks per task id
system.cpu.dcache.tags.age_task_id_blocks_1024::1          730                       # Occupied blocks per task id
system.cpu.dcache.tags.age_task_id_blocks_1024::2          236                       # Occupied blocks per task id
system.cpu.dcache.tags.occ_task_id_percent::1024            1                       # Percentage of cache occupancy per task id
system.cpu.dcache.tags.tag_accesses           1031423                       # Number of tag accesses
system.cpu.dcache.tags.data_accesses          1031423                       # Number of data accesses
system.cpu.dcache.pwrStateResidencyTicks::UNDEFINED 4807224293500                       # Cumulative time (in ticks) in various power states
system.cpu.dcache.ReadReq_hits::cpu.data       287172                       # number of ReadReq hits
system.cpu.dcache.ReadReq_hits::total          287172                       # number of ReadReq hits
system.cpu.dcache.WriteReq_hits::cpu.data       182235                       # number of WriteReq hits
system.cpu.dcache.WriteReq_hits::total         182235                       # number of WriteReq hits
system.cpu.dcache.SoftPFReq_hits::cpu.data          537                       # number of SoftPFReq hits
system.cpu.dcache.SoftPFReq_hits::total           537                       # number of SoftPFReq hits
system.cpu.dcache.demand_hits::cpu.data        469407                       # number of demand (read+write) hits
system.cpu.dcache.demand_hits::total           469407                       # number of demand (read+write) hits
system.cpu.dcache.overall_hits::cpu.data       469944                       # number of overall hits
system.cpu.dcache.overall_hits::total          469944                       # number of overall hits
system.cpu.dcache.ReadReq_misses::cpu.data        23082                       # number of ReadReq misses
system.cpu.dcache.ReadReq_misses::total         23082                       # number of ReadReq misses
system.cpu.dcache.WriteReq_misses::cpu.data         9016                       # number of WriteReq misses
system.cpu.dcache.WriteReq_misses::total         9016                       # number of WriteReq misses
system.cpu.dcache.SoftPFReq_misses::cpu.data         3007                       # number of SoftPFReq misses
system.cpu.dcache.SoftPFReq_misses::total         3007                       # number of SoftPFReq misses
system.cpu.dcache.demand_misses::cpu.data        32098                       # number of demand (read+write) misses
system.cpu.dcache.demand_misses::total          32098                       # number of demand (read+write) misses
system.cpu.dcache.overall_misses::cpu.data        35105                       # number of overall misses
system.cpu.dcache.overall_misses::total         35105                       # number of overall misses
system.cpu.dcache.ReadReq_miss_latency::cpu.data    291479500                       # number of ReadReq miss cycles
system.cpu.dcache.ReadReq_miss_latency::total    291479500                       # number of ReadReq miss cycles
system.cpu.dcache.WriteReq_miss_latency::cpu.data    160358983                       # number of WriteReq miss cycles
system.cpu.dcache.WriteReq_miss_latency::total    160358983                       # number of WriteReq miss cycles
system.cpu.dcache.demand_miss_latency::cpu.data    451838483                       # number of demand (read+write) miss cycles
system.cpu.dcache.demand_miss_latency::total    451838483                       # number of demand (read+write) miss cycles
system.cpu.dcache.overall_miss_latency::cpu.data    451838483                       # number of overall miss cycles
[...]
system.l2cache.demand_mshr_misses::total         1526                       # number of demand (read+write) MSHR misses
system.l2cache.overall_mshr_misses::cpu.inst          494                       # number of overall MSHR misses
system.l2cache.overall_mshr_misses::cpu.data         1032                       # number of overall MSHR misses
system.l2cache.overall_mshr_misses::total         1526                       # number of overall MSHR misses
system.l2cache.ReadReq_mshr_uncacheable::cpu.data          353                       # number of ReadReq MSHR uncacheable
system.l2cache.ReadReq_mshr_uncacheable::total          353                       # number of ReadReq MSHR uncacheable
system.l2cache.WriteReq_mshr_uncacheable::cpu.data          131                       # number of WriteReq MSHR uncacheable
system.l2cache.WriteReq_mshr_uncacheable::total          131                       # number of WriteReq MSHR uncacheable
system.l2cache.overall_mshr_uncacheable_misses::cpu.data          484                       # number of overall MSHR uncacheable misses
system.l2cache.overall_mshr_uncacheable_misses::total          484                       # number of overall MSHR uncacheable misses
system.l2cache.UpgradeReq_mshr_miss_latency::cpu.data     12383999                       # number of UpgradeReq MSHR miss cycles
system.l2cache.UpgradeReq_mshr_miss_latency::total     12383999                       # number of UpgradeReq MSHR miss cycles
system.l2cache.ReadExReq_mshr_miss_latency::cpu.data     45955000                       # number of ReadExReq MSHR miss cycles
system.l2cache.ReadExReq_mshr_miss_latency::total     45955000                       # number of ReadExReq MSHR miss cycles
system.l2cache.ReadSharedReq_mshr_miss_latency::cpu.inst     41973500                       # number of ReadSharedReq MSHR miss cycles
system.l2cache.ReadSharedReq_mshr_miss_latency::cpu.data     25664000                       # number of ReadSharedReq MSHR miss cycles
system.l2cache.ReadSharedReq_mshr_miss_latency::total     67637500                       # number of ReadSharedReq MSHR miss cycles
system.l2cache.demand_mshr_miss_latency::cpu.inst     41973500                       # number of demand (read+write) MSHR miss cycles
system.l2cache.demand_mshr_miss_latency::cpu.data     71619000                       # number of demand (read+write) MSHR miss cycles
system.l2cache.demand_mshr_miss_latency::total    113592500                       # number of demand (read+write) MSHR miss cycles
system.l2cache.overall_mshr_miss_latency::cpu.inst     41973500                       # number of overall MSHR miss cycles
system.l2cache.overall_mshr_miss_latency::cpu.data     71619000                       # number of overall MSHR miss cycles
system.l2cache.overall_mshr_miss_latency::total    113592500                       # number of overall MSHR miss cycles
system.l2cache.ReadReq_mshr_uncacheable_latency::cpu.data     77130500                       # number of ReadReq MSHR uncacheable cycles
system.l2cache.ReadReq_mshr_uncacheable_latency::total     77130500                       # number of ReadReq MSHR uncacheable cycles
system.l2cache.overall_mshr_uncacheable_latency::cpu.data     77130500                       # number of overall MSHR uncacheable cycles
system.l2cache.overall_mshr_uncacheable_latency::total     77130500                       # number of overall MSHR uncacheable cycles
system.l2cache.UpgradeReq_mshr_miss_rate::cpu.data     0.945495                       # mshr miss rate for UpgradeReq accesses
system.l2cache.UpgradeReq_mshr_miss_rate::total     0.945495                       # mshr miss rate for UpgradeReq accesses
system.l2cache.ReadExReq_mshr_miss_rate::cpu.data     0.057317                       # mshr miss rate for ReadExReq accesses
system.l2cache.ReadExReq_mshr_miss_rate::total     0.057317                       # mshr miss rate for ReadExReq accesses
system.l2cache.ReadSharedReq_mshr_miss_rate::cpu.inst     0.015670                       # mshr miss rate for ReadSharedReq accesses
system.l2cache.ReadSharedReq_mshr_miss_rate::cpu.data     0.012410                       # mshr miss rate for ReadSharedReq accesses
system.l2cache.ReadSharedReq_mshr_miss_rate::total     0.014390                       # mshr miss rate for ReadSharedReq accesses
system.l2cache.demand_mshr_miss_rate::cpu.inst     0.015670                       # mshr miss rate for demand accesses
system.l2cache.demand_mshr_miss_rate::cpu.data     0.030373                       # mshr miss rate for demand accesses
system.l2cache.demand_mshr_miss_rate::total     0.023297                       # mshr miss rate for demand accesses
system.l2cache.overall_mshr_miss_rate::cpu.inst     0.015670                       # mshr miss rate for overall accesses
system.l2cache.overall_mshr_miss_rate::cpu.data     0.030373                       # mshr miss rate for overall accesses
system.l2cache.overall_mshr_miss_rate::total     0.023297                       # mshr miss rate for overall accesses
system.l2cache.UpgradeReq_avg_mshr_miss_latency::cpu.data 14569.410588                       # average UpgradeReq mshr miss latency
system.l2cache.UpgradeReq_avg_mshr_miss_latency::total 14569.410588                       # average UpgradeReq mshr miss latency
system.l2cache.ReadExReq_avg_mshr_miss_latency::cpu.data 58992.297818                       # average ReadExReq mshr miss latency
system.l2cache.ReadExReq_avg_mshr_miss_latency::total 58992.297818                       # average ReadExReq mshr miss latency
system.l2cache.ReadSharedReq_avg_mshr_miss_latency::cpu.inst 84966.599190                       # average ReadSharedReq mshr miss latency
system.l2cache.ReadSharedReq_avg_mshr_miss_latency::cpu.data 101438.735178                       # average ReadSharedReq mshr miss latency
system.l2cache.ReadSharedReq_avg_mshr_miss_latency::total 90545.515395                       # average ReadSharedReq mshr miss latency
system.l2cache.demand_avg_mshr_miss_latency::cpu.inst 84966.599190                       # average overall mshr miss latency
system.l2cache.demand_avg_mshr_miss_latency::cpu.data 69398.255814                       # average overall mshr miss latency
system.l2cache.demand_avg_mshr_miss_latency::total 74438.073394                       # average overall mshr miss latency
system.l2cache.overall_avg_mshr_miss_latency::cpu.inst 84966.599190                       # average overall mshr miss latency
system.l2cache.overall_avg_mshr_miss_latency::cpu.data 69398.255814                       # average overall mshr miss latency
system.l2cache.overall_avg_mshr_miss_latency::total 74438.073394                       # average overall mshr miss latency
system.l2cache.ReadReq_avg_mshr_uncacheable_latency::cpu.data       218500                       # average ReadReq mshr uncacheable latency
system.l2cache.ReadReq_avg_mshr_uncacheable_latency::total       218500                       # average ReadReq mshr uncacheable latency
system.l2cache.overall_avg_mshr_uncacheable_latency::cpu.data 159360.537190                       # average overall mshr uncacheable latency
system.l2cache.overall_avg_mshr_uncacheable_latency::total 159360.537190                       # average overall mshr uncacheable latency
system.membus.snoop_filter.tot_requests         35767                       # Total number of requests made to the snoop filter.
system.membus.snoop_filter.hit_single_requests        34366                       # Number of requests hitting in the snoop filter with a single holder of the requested data.
system.membus.snoop_filter.hit_multi_requests            0                       # Number of requests hitting in the snoop filter with multiple (>1) holders of the requested data.
system.membus.snoop_filter.tot_snoops               0                       # Total number of snoops made to the snoop filter.
system.membus.snoop_filter.hit_single_snoops            0                       # Number of snoops hitting in the snoop filter with a single holder of the requested data.
system.membus.snoop_filter.hit_multi_snoops            0                       # Number of snoops hitting in the snoop filter with multiple (>1) holders of the requested data.
system.membus.pwrStateResidencyTicks::UNDEFINED 4807843318500                       # Cumulative time (in ticks) in various power states
system.membus.trans_dist::ReadReq               35439                       # Transaction distribution
system.membus.trans_dist::ReadResp              36186                       # Transaction distribution
system.membus.trans_dist::WriteReq                131                       # Transaction distribution
system.membus.trans_dist::WriteResp               131                       # Transaction distribution
system.membus.trans_dist::WritebackDirty          665                       # Transaction distribution
system.membus.trans_dist::CleanEvict              598                       # Transaction distribution
system.membus.trans_dist::UpgradeReq              975                       # Transaction distribution
system.membus.trans_dist::ReadExReq               654                       # Transaction distribution
system.membus.trans_dist::ReadExResp              654                       # Transaction distribution
system.membus.trans_dist::ReadSharedReq           747                       # Transaction distribution
system.membus.trans_dist::MessageReq              119                       # Transaction distribution
system.membus.trans_dist::MessageResp             119                       # Transaction distribution
system.membus.pkt_count_system.apicbridge.master::system.cpu.interrupts.int_slave          238                       # Packet count per connected master and slave (bytes)
system.membus.pkt_count_system.apicbridge.master::total          238                       # Packet count per connected master and slave (bytes)
system.membus.pkt_count_system.l2cache.mem_side::system.bridge.slave          952                       # Packet count per connected master and slave (bytes)
system.membus.pkt_count_system.l2cache.mem_side::system.mem_cntrl.port         5040                       # Packet count per connected master and slave (bytes)
system.membus.pkt_count_system.l2cache.mem_side::system.cpu.interrupts.pio           16                       # Packet count per connected master and slave (bytes)
system.membus.pkt_count_system.l2cache.mem_side::total         6008                       # Packet count per connected master and slave (bytes)
system.membus.pkt_count_system.cpu.itb.walker.port::system.mem_cntrl.port         7459                       # Packet count per connected master and slave (bytes)
system.membus.pkt_count_system.cpu.itb.walker.port::total         7459                       # Packet count per connected master and slave (bytes)
system.membus.pkt_count_system.cpu.dtb.walker.port::system.mem_cntrl.port        30632                       # Packet count per connected master and slave (bytes)
system.membus.pkt_count_system.cpu.dtb.walker.port::total        30632                       # Packet count per connected master and slave (bytes)
system.membus.pkt_count::total                  44337                       # Packet count per connected master and slave (bytes)
system.membus.pkt_size_system.apicbridge.master::system.cpu.interrupts.int_slave          476                       # Cumulative packet size per connected master and slave (bytes)
system.membus.pkt_size_system.apicbridge.master::total          476                       # Cumulative packet size per connected master and slave (bytes)
system.membus.pkt_size_system.l2cache.mem_side::system.bridge.slave          476                       # Cumulative packet size per connected master and slave (bytes)
system.membus.pkt_size_system.l2cache.mem_side::system.mem_cntrl.port       132224                       # Cumulative packet size per connected master and slave (bytes)
system.membus.pkt_size_system.l2cache.mem_side::system.cpu.interrupts.pio           32                       # Cumulative packet size per connected master and slave (bytes)
system.membus.pkt_size_system.l2cache.mem_side::total       132732                       # Cumulative packet size per connected master and slave (bytes)
system.membus.pkt_size_system.cpu.itb.walker.port::system.mem_cntrl.port          464                       # Cumulative packet size per connected master and slave (bytes)
system.membus.pkt_size_system.cpu.itb.walker.port::total          464                       # Cumulative packet size per connected master and slave (bytes)
system.membus.pkt_size_system.cpu.dtb.walker.port::system.mem_cntrl.port        23576                       # Cumulative packet size per connected master and slave (bytes)
system.membus.pkt_size_system.cpu.dtb.walker.port::total        23576                       # Cumulative packet size per connected master and slave (bytes)
system.membus.pkt_size::total                  157248                       # Cumulative packet size per connected master and slave (bytes)
system.membus.snoops                            32081                       # Total snoops (count)
system.membus.snoopTraffic                     256648                       # Total snoop traffic (bytes)
system.membus.snoop_fanout::samples             38065                       # Request fanout histogram
system.membus.snoop_fanout::mean             0.844030                       # Request fanout histogram
system.membus.snoop_fanout::stdev            0.362832                       # Request fanout histogram
system.membus.snoop_fanout::underflows              0      0.00%      0.00% # Request fanout histogram
system.membus.snoop_fanout::0                    5937     15.60%     15.60% # Request fanout histogram
system.membus.snoop_fanout::1                   32128     84.40%    100.00% # Request fanout histogram
system.membus.snoop_fanout::2                       0      0.00%    100.00% # Request fanout histogram
system.membus.snoop_fanout::overflows               0      0.00%    100.00% # Request fanout histogram
system.membus.snoop_fanout::min_value               0                       # Request fanout histogram
system.membus.snoop_fanout::max_value               1                       # Request fanout histogram
system.membus.snoop_fanout::total               38065                       # Request fanout histogram
system.membus.reqLayer0.occupancy              299500                       # Layer occupancy (ticks)
system.membus.reqLayer0.utilization               0.0                       # Layer utilization (%)
system.membus.reqLayer1.occupancy            20693498                       # Layer occupancy (ticks)
system.membus.reqLayer1.utilization               1.1                       # Layer utilization (%)
system.membus.reqLayer2.occupancy                8000                       # Layer occupancy (ticks)
system.membus.reqLayer2.utilization               0.0                       # Layer utilization (%)
system.membus.reqLayer3.occupancy              119000                       # Layer occupancy (ticks)
system.membus.reqLayer3.utilization               0.0                       # Layer utilization (%)
system.membus.respLayer1.occupancy              59500                       # Layer occupancy (ticks)
system.membus.respLayer1.utilization              0.0                       # Layer utilization (%)
system.membus.respLayer3.occupancy            4177750                       # Layer occupancy (ticks)
system.membus.respLayer3.utilization              0.2                       # Layer utilization (%)
system.membus.respLayer4.occupancy            7559200                       # Layer occupancy (ticks)
system.membus.respLayer4.utilization              0.4                       # Layer utilization (%)
system.membus.respLayer5.occupancy           28342141                       # Layer occupancy (ticks)
system.membus.respLayer5.utilization              1.5                       # Layer utilization (%)
system.membus.badaddr_responder.pwrStateResidencyTicks::UNDEFINED 4807843318500                       # Cumulative time (in ticks) in various power states
system.pc.behind_pci.pwrStateResidencyTicks::UNDEFINED 4807843318500                       # Cumulative time (in ticks) in various power states
system.pc.com_1.pwrStateResidencyTicks::UNDEFINED 4807843318500                       # Cumulative time (in ticks) in various power states
system.pc.fake_com_2.pwrStateResidencyTicks::UNDEFINED 4807843318500                       # Cumulative time (in ticks) in various power states
system.pc.fake_com_3.pwrStateResidencyTicks::UNDEFINED 4807843318500                       # Cumulative time (in ticks) in various power states
system.pc.fake_com_4.pwrStateResidencyTicks::UNDEFINED 4807843318500                       # Cumulative time (in ticks) in various power states
system.pc.fake_floppy.pwrStateResidencyTicks::UNDEFINED 4807843318500                       # Cumulative time (in ticks) in various power states
system.pc.i_dont_exist1.pwrStateResidencyTicks::UNDEFINED 4807843318500                       # Cumulative time (in ticks) in various power states
system.pc.i_dont_exist2.pwrStateResidencyTicks::UNDEFINED 4807843318500                       # Cumulative time (in ticks) in various power states
system.pc.pci_host.pwrStateResidencyTicks::UNDEFINED 4807843318500                       # Cumulative time (in ticks) in various power states
system.pc.south_bridge.cmos.pwrStateResidencyTicks::UNDEFINED 4807843318500                       # Cumulative time (in ticks) in various power states
system.pc.south_bridge.dma1.pwrStateResidencyTicks::UNDEFINED 4807843318500                       # Cumulative time (in ticks) in various power states
system.pc.south_bridge.pic2.pwrStateResidencyTicks::UNDEFINED 4807843318500                       # Cumulative time (in ticks) in various power states
system.pc.south_bridge.pic1.pwrStateResidencyTicks::UNDEFINED 4807843318500                       # Cumulative time (in ticks) in various power states
system.pc.south_bridge.io_apic.pwrStateResidencyTicks::UNDEFINED 4807843318500                       # Cumulative time (in ticks) in various power states
system.pc.south_bridge.keyboard.pwrStateResidencyTicks::UNDEFINED 4807843318500                       # Cumulative time (in ticks) in various power states
system.pc.south_bridge.pit.pwrStateResidencyTicks::UNDEFINED 4807843318500                       # Cumulative time (in ticks) in various power states
system.pc.south_bridge.speaker.pwrStateResidencyTicks::UNDEFINED 4807843318500                       # Cumulative time (in ticks) in various power states
system.pc.south_bridge.ide.disks.dma_read_full_pages            0                       # Number of full page size DMA reads (not PRD).
system.pc.south_bridge.ide.disks.dma_read_bytes            0                       # Number of bytes transfered via DMA reads (not PRD).
system.pc.south_bridge.ide.disks.dma_read_txs            0                       # Number of DMA read transactions (not PRD).
system.pc.south_bridge.ide.disks.dma_write_full_pages            0                       # Number of full page size DMA writes.
system.pc.south_bridge.ide.disks.dma_write_bytes            0                       # Number of bytes transfered via DMA writes.
system.pc.south_bridge.ide.disks.dma_write_txs            0                       # Number of DMA write transactions.
system.pc.south_bridge.ide.pwrStateResidencyTicks::UNDEFINED 4807843318500                       # Cumulative time (in ticks) in various power states
system.cpu.kern.inst.arm                            0                       # number of arm instructions executed
system.cpu.kern.inst.quiesce                        0                       # number of quiesce instructions executed

---------- End Simulation Statistics   ----------
