
---------- Begin Simulation Statistics ----------
sim_seconds                                  0.001240                       # Number of seconds simulated
sim_ticks                                  1239618500                       # Number of ticks simulated
final_tick                               4807093614500                       # Number of ticks from beginning of simulation (restored from checkpoints and never reset)
sim_freq                                 1000000000000                       # Frequency of simulated ticks
host_inst_rate                               69746701                       # Simulator instruction rate (inst/s)
host_op_rate                                163063596                       # Simulator op (including micro ops) rate (op/s)
host_tick_rate                               59106246                       # Simulator tick rate (ticks/s)
host_mem_usage                                1545852                       # Number of bytes of host memory used
host_seconds                                    20.97                       # Real time elapsed on the host
sim_insts                                  1462774575                       # Number of instructions simulated
sim_ops                                    3419882966                       # Number of ops (including micro ops) simulated
system.clk_domain.voltage_domain.voltage            1                       # Voltage in Volts
system.clk_domain.clock                           500                       # Clock period in ticks
system.mem_cntrl.pwrStateResidencyTicks::UNDEFINED 4807093614500                       # Cumulative time (in ticks) in various power states
system.mem_cntrl.bytes_read::cpu.dtb.walker        16176                       # Number of bytes read from this memory
system.mem_cntrl.bytes_read::cpu.itb.walker          528                       # Number of bytes read from this memory
system.mem_cntrl.bytes_read::cpu.inst           32896                       # Number of bytes read from this memory
system.mem_cntrl.bytes_read::cpu.data           40128                       # Number of bytes read from this memory
system.mem_cntrl.bytes_read::total              89728                       # Number of bytes read from this memory
system.mem_cntrl.bytes_inst_read::cpu.inst        32896                       # Number of instructions bytes read from this memory
system.mem_cntrl.bytes_inst_read::total         32896                       # Number of instructions bytes read from this memory
system.mem_cntrl.bytes_written::writebacks        34496                       # Number of bytes written to this memory
system.mem_cntrl.bytes_written::total           34496                       # Number of bytes written to this memory
system.mem_cntrl.num_reads::cpu.dtb.walker         2022                       # Number of read requests responded to by this memory
system.mem_cntrl.num_reads::cpu.itb.walker           66                       # Number of read requests responded to by this memory
system.mem_cntrl.num_reads::cpu.inst              514                       # Number of read requests responded to by this memory
system.mem_cntrl.num_reads::cpu.data              627                       # Number of read requests responded to by this memory
system.mem_cntrl.num_reads::total                3229                       # Number of read requests responded to by this memory
system.mem_cntrl.num_writes::writebacks           539                       # Number of write requests responded to by this memory
system.mem_cntrl.num_writes::total                539                       # Number of write requests responded to by this memory
system.mem_cntrl.bw_read::cpu.dtb.walker     13049176                       # Total read bandwidth from this memory (bytes/s)
system.mem_cntrl.bw_read::cpu.itb.walker       425937                       # Total read bandwidth from this memory (bytes/s)
system.mem_cntrl.bw_read::cpu.inst           26537197                       # Total read bandwidth from this memory (bytes/s)
system.mem_cntrl.bw_read::cpu.data           32371250                       # Total read bandwidth from this memory (bytes/s)
system.mem_cntrl.bw_read::total              72383560                       # Total read bandwidth from this memory (bytes/s)
system.mem_cntrl.bw_inst_read::cpu.inst      26537197                       # Instruction read bandwidth from this memory (bytes/s)
system.mem_cntrl.bw_inst_read::total         26537197                       # Instruction read bandwidth from this memory (bytes/s)
system.mem_cntrl.bw_write::writebacks        27827916                       # Write bandwidth from this memory (bytes/s)
system.mem_cntrl.bw_write::total             27827916                       # Write bandwidth from this memory (bytes/s)
system.mem_cntrl.bw_total::writebacks        27827916                       # Total bandwidth to/from this memory (bytes/s)
system.mem_cntrl.bw_total::cpu.dtb.walker     13049176                       # Total bandwidth to/from this memory (bytes/s)
system.mem_cntrl.bw_total::cpu.itb.walker       425937                       # Total bandwidth to/from this memory (bytes/s)
system.mem_cntrl.bw_total::cpu.inst          26537197                       # Total bandwidth to/from this memory (bytes/s)
system.mem_cntrl.bw_total::cpu.data          32371250                       # Total bandwidth to/from this memory (bytes/s)
system.mem_cntrl.bw_total::total            100211476                       # Total bandwidth to/from this memory (bytes/s)
system.mem_cntrl.readReqs                        3229                       # Number of read requests accepted
system.mem_cntrl.writeReqs                        539                       # Number of write requests accepted
system.mem_cntrl.readBursts                      3229                       # Number of DRAM read bursts, including those serviced by the write queue
system.mem_cntrl.writeBursts                      539                       # Number of DRAM write bursts, including those merged in the write queue
system.mem_cntrl.bytesReadDRAM                 206464                       # Total number of bytes read from DRAM
system.mem_cntrl.bytesReadWrQ                     192                       # Total number of bytes read from write queue
system.mem_cntrl.bytesWritten                   34048                       # Total number of bytes written to DRAM
system.mem_cntrl.bytesReadSys                   89728                       # Total read bytes from the system interface side
system.mem_cntrl.bytesWrittenSys                34496                       # Total written bytes from the system interface side
system.mem_cntrl.servicedByWrQ                      3                       # Number of DRAM read bursts serviced by the write queue
system.mem_cntrl.mergedWrBursts                     0                       # Number of DRAM write bursts merged with an existing one
system.mem_cntrl.neitherReadNorWriteReqs            0                       # Number of requests that are neither read nor write
system.mem_cntrl.perBankRdBursts::0                52                       # Per bank write bursts
system.mem_cntrl.perBankRdBursts::1                61                       # Per bank write bursts
system.mem_cntrl.perBankRdBursts::2                18                       # Per bank write bursts
system.mem_cntrl.perBankRdBursts::3                20                       # Per bank write bursts
system.mem_cntrl.perBankRdBursts::4               297                       # Per bank write bursts
system.mem_cntrl.perBankRdBursts::5               312                       # Per bank write bursts
system.mem_cntrl.perBankRdBursts::6               826                       # Per bank write bursts
system.mem_cntrl.perBankRdBursts::7               170                       # Per bank write bursts
system.mem_cntrl.perBankRdBursts::8               669                       # Per bank write bursts
system.mem_cntrl.perBankRdBursts::9               165                       # Per bank write bursts
system.mem_cntrl.perBankRdBursts::10              148                       # Per bank write bursts
system.mem_cntrl.perBankRdBursts::11               62                       # Per bank write bursts
system.mem_cntrl.perBankRdBursts::12               52                       # Per bank write bursts
system.mem_cntrl.perBankRdBursts::13               61                       # Per bank write bursts
system.mem_cntrl.perBankRdBursts::14              188                       # Per bank write bursts
system.mem_cntrl.perBankRdBursts::15              125                       # Per bank write bursts
system.mem_cntrl.perBankWrBursts::0                26                       # Per bank write bursts
system.mem_cntrl.perBankWrBursts::1                33                       # Per bank write bursts
system.mem_cntrl.perBankWrBursts::2                 6                       # Per bank write bursts
system.mem_cntrl.perBankWrBursts::3                10                       # Per bank write bursts
system.mem_cntrl.perBankWrBursts::4                 9                       # Per bank write bursts
system.mem_cntrl.perBankWrBursts::5                39                       # Per bank write bursts
system.mem_cntrl.perBankWrBursts::6                54                       # Per bank write bursts
system.mem_cntrl.perBankWrBursts::7                11                       # Per bank write bursts
system.mem_cntrl.perBankWrBursts::8                40                       # Per bank write bursts
system.mem_cntrl.perBankWrBursts::9                62                       # Per bank write bursts
system.mem_cntrl.perBankWrBursts::10               30                       # Per bank write bursts
system.mem_cntrl.perBankWrBursts::11               25                       # Per bank write bursts
system.mem_cntrl.perBankWrBursts::12               12                       # Per bank write bursts
system.mem_cntrl.perBankWrBursts::13               38                       # Per bank write bursts
system.mem_cntrl.perBankWrBursts::14               58                       # Per bank write bursts
system.mem_cntrl.perBankWrBursts::15               79                       # Per bank write bursts
system.mem_cntrl.numRdRetry                         0                       # Number of times read queue was full causing retry
system.mem_cntrl.numWrRetry                         0                       # Number of times write queue was full causing retry
system.mem_cntrl.totGap                    1239659500                       # Total gap between requests
system.mem_cntrl.readPktSize::0                     0                       # Read request sizes (log2)
system.mem_cntrl.readPktSize::1                     0                       # Read request sizes (log2)
system.mem_cntrl.readPktSize::2                     0                       # Read request sizes (log2)
system.mem_cntrl.readPktSize::3                  2088                       # Read request sizes (log2)
system.mem_cntrl.readPktSize::4                     0                       # Read request sizes (log2)
system.mem_cntrl.readPktSize::5                     0                       # Read request sizes (log2)
system.mem_cntrl.readPktSize::6                  1141                       # Read request sizes (log2)
system.mem_cntrl.writePktSize::0                    0                       # Write request sizes (log2)
system.mem_cntrl.writePktSize::1                    0                       # Write request sizes (log2)
system.mem_cntrl.writePktSize::2                    0                       # Write request sizes (log2)
system.mem_cntrl.writePktSize::3                    0                       # Write request sizes (log2)
system.mem_cntrl.writePktSize::4                    0                       # Write request sizes (log2)
system.mem_cntrl.writePktSize::5                    0                       # Write request sizes (log2)
system.mem_cntrl.writePktSize::6                  539                       # Write request sizes (log2)
system.mem_cntrl.rdQLenPdf::0                    2989                       # What read queue length does an incoming req see
system.mem_cntrl.rdQLenPdf::1                     209                       # What read queue length does an incoming req see
system.mem_cntrl.rdQLenPdf::2                      21                       # What read queue length does an incoming req see
system.mem_cntrl.rdQLenPdf::3                       5                       # What read queue length does an incoming req see
system.mem_cntrl.rdQLenPdf::4                       2                       # What read queue length does an incoming req see
system.mem_cntrl.rdQLenPdf::5                       0                       # What read queue length does an incoming req see
system.mem_cntrl.rdQLenPdf::6                       0                       # What read queue length does an incoming req see
system.mem_cntrl.rdQLenPdf::7                       0                       # What read queue length does an incoming req see
system.mem_cntrl.rdQLenPdf::8                       0                       # What read queue length does an incoming req see
system.mem_cntrl.rdQLenPdf::9                       0                       # What read queue length does an incoming req see
system.mem_cntrl.rdQLenPdf::10                      0                       # What read queue length does an incoming req see
system.mem_cntrl.rdQLenPdf::11                      0                       # What read queue length does an incoming req see
system.mem_cntrl.rdQLenPdf::12                      0                       # What read queue length does an incoming req see
system.mem_cntrl.rdQLenPdf::13                      0                       # What read queue length does an incoming req see
system.mem_cntrl.rdQLenPdf::14                      0                       # What read queue length does an incoming req see
system.mem_cntrl.rdQLenPdf::15                      0                       # What read queue length does an incoming req see
system.mem_cntrl.rdQLenPdf::16                      0                       # What read queue length does an incoming req see
system.mem_cntrl.rdQLenPdf::17                      0                       # What read queue length does an incoming req see
system.mem_cntrl.rdQLenPdf::18                      0                       # What read queue length does an incoming req see
system.mem_cntrl.rdQLenPdf::19                      0                       # What read queue length does an incoming req see
system.mem_cntrl.rdQLenPdf::20                      0                       # What read queue length does an incoming req see
system.mem_cntrl.rdQLenPdf::21                      0                       # What read queue length does an incoming req see
system.mem_cntrl.rdQLenPdf::22                      0                       # What read queue length does an incoming req see
system.mem_cntrl.rdQLenPdf::23                      0                       # What read queue length does an incoming req see
system.mem_cntrl.rdQLenPdf::24                      0                       # What read queue length does an incoming req see
system.mem_cntrl.rdQLenPdf::25                      0                       # What read queue length does an incoming req see
system.mem_cntrl.rdQLenPdf::26                      0                       # What read queue length does an incoming req see
system.mem_cntrl.rdQLenPdf::27                      0                       # What read queue length does an incoming req see
system.mem_cntrl.rdQLenPdf::28                      0                       # What read queue length does an incoming req see
system.mem_cntrl.rdQLenPdf::29                      0                       # What read queue length does an incoming req see
system.mem_cntrl.rdQLenPdf::30                      0                       # What read queue length does an incoming req see
system.mem_cntrl.rdQLenPdf::31                      0                       # What read queue length does an incoming req see
system.mem_cntrl.wrQLenPdf::0                       0                       # What write queue length does an incoming req see
system.mem_cntrl.wrQLenPdf::1                       0                       # What write queue length does an incoming req see
system.mem_cntrl.wrQLenPdf::2                       0                       # What write queue length does an incoming req see
system.mem_cntrl.wrQLenPdf::3                       0                       # What write queue length does an incoming req see
system.mem_cntrl.wrQLenPdf::4                       0                       # What write queue length does an incoming req see
system.mem_cntrl.wrQLenPdf::5                       0                       # What write queue length does an incoming req see
system.mem_cntrl.wrQLenPdf::6                       0                       # What write queue length does an incoming req see
system.mem_cntrl.wrQLenPdf::7                       0                       # What write queue length does an incoming req see
system.mem_cntrl.wrQLenPdf::8                       0                       # What write queue length does an incoming req see
system.mem_cntrl.wrQLenPdf::9                       0                       # What write queue length does an incoming req see
system.mem_cntrl.wrQLenPdf::10                      0                       # What write queue length does an incoming req see
system.mem_cntrl.wrQLenPdf::11                      0                       # What write queue length does an incoming req see
system.mem_cntrl.wrQLenPdf::12                      0                       # What write queue length does an incoming req see
system.mem_cntrl.wrQLenPdf::13                      0                       # What write queue length does an incoming req see
system.mem_cntrl.wrQLenPdf::14                      0                       # What write queue length does an incoming req see
system.mem_cntrl.wrQLenPdf::15                     10                       # What write queue length does an incoming req see
system.mem_cntrl.wrQLenPdf::16                     10                       # What write queue length does an incoming req see
system.mem_cntrl.wrQLenPdf::17                     28                       # What write queue length does an incoming req see
system.mem_cntrl.wrQLenPdf::18                     33                       # What write queue length does an incoming req see
system.mem_cntrl.wrQLenPdf::19                     33                       # What write queue length does an incoming req see
system.mem_cntrl.wrQLenPdf::20                     33                       # What write queue length does an incoming req see
system.mem_cntrl.wrQLenPdf::21                     33                       # What write queue length does an incoming req see
system.mem_cntrl.wrQLenPdf::22                     33                       # What write queue length does an incoming req see
system.mem_cntrl.wrQLenPdf::23                     33                       # What write queue length does an incoming req see
system.mem_cntrl.wrQLenPdf::24                     32                       # What write queue length does an incoming req see
system.mem_cntrl.wrQLenPdf::25                     32                       # What write queue length does an incoming req see
system.mem_cntrl.wrQLenPdf::26                     33                       # What write queue length does an incoming req see
system.mem_cntrl.wrQLenPdf::27                     32                       # What write queue length does an incoming req see
system.mem_cntrl.wrQLenPdf::28                     32                       # What write queue length does an incoming req see
system.mem_cntrl.wrQLenPdf::29                     32                       # What write queue length does an incoming req see
system.mem_cntrl.wrQLenPdf::30                     36                       # What write queue length does an incoming req see
system.mem_cntrl.wrQLenPdf::31                     32                       # What write queue length does an incoming req see
system.mem_cntrl.wrQLenPdf::32                     32                       # What write queue length does an incoming req see
system.mem_cntrl.wrQLenPdf::33                      0                       # What write queue length does an incoming req see
system.mem_cntrl.wrQLenPdf::34                      0                       # What write queue length does an incoming req see
system.mem_cntrl.wrQLenPdf::35                      0                       # What write queue length does an incoming req see
system.mem_cntrl.wrQLenPdf::36                      0                       # What write queue length does an incoming req see
system.mem_cntrl.wrQLenPdf::37                      0                       # What write queue length does an incoming req see
system.mem_cntrl.wrQLenPdf::38                      0                       # What write queue length does an incoming req see
system.mem_cntrl.wrQLenPdf::39                      0                       # What write queue length does an incoming req see
system.mem_cntrl.wrQLenPdf::40                      0                       # What write queue length does an incoming req see
system.mem_cntrl.wrQLenPdf::41                      0                       # What write queue length does an incoming req see
system.mem_cntrl.wrQLenPdf::42                      0                       # What write queue length does an incoming req see
system.mem_cntrl.wrQLenPdf::43                      0                       # What write queue length does an incoming req see
system.mem_cntrl.wrQLenPdf::44                      0                       # What write queue length does an incoming req see
system.mem_cntrl.wrQLenPdf::45                      0                       # What write queue length does an incoming req see
system.mem_cntrl.wrQLenPdf::46                      0                       # What write queue length does an incoming req see
system.mem_cntrl.wrQLenPdf::47                      0                       # What write queue length does an incoming req see
system.mem_cntrl.wrQLenPdf::48                      0                       # What write queue length does an incoming req see
system.mem_cntrl.wrQLenPdf::49                      0                       # What write queue length does an incoming req see
system.mem_cntrl.wrQLenPdf::50                      0                       # What write queue length does an incoming req see
system.mem_cntrl.wrQLenPdf::51                      0                       # What write queue length does an incoming req see
system.mem_cntrl.wrQLenPdf::52                      0                       # What write queue length does an incoming req see
system.mem_cntrl.wrQLenPdf::53                      0                       # What write queue length does an incoming req see
system.mem_cntrl.wrQLenPdf::54                      0                       # What write queue length does an incoming req see
system.mem_cntrl.wrQLenPdf::55                      0                       # What write queue length does an incoming req see
system.mem_cntrl.wrQLenPdf::56                      0                       # What write queue length does an incoming req see
system.mem_cntrl.wrQLenPdf::57                      0                       # What write queue length does an incoming req see
system.mem_cntrl.wrQLenPdf::58                      0                       # What write queue length does an incoming req see
system.mem_cntrl.wrQLenPdf::59                      0                       # What write queue length does an incoming req see
system.mem_cntrl.wrQLenPdf::60                      0                       # What write queue length does an incoming req see
system.mem_cntrl.wrQLenPdf::61                      0                       # What write queue length does an incoming req see
system.mem_cntrl.wrQLenPdf::62                      0                       # What write queue length does an incoming req see
system.mem_cntrl.wrQLenPdf::63                      0                       # What write queue length does an incoming req see
system.mem_cntrl.bytesPerActivate::samples         1097                       # Bytes accessed per row activation
system.mem_cntrl.bytesPerActivate::mean    219.186873                       # Bytes accessed per row activation
system.mem_cntrl.bytesPerActivate::gmean   138.402048                       # Bytes accessed per row activation
system.mem_cntrl.bytesPerActivate::stdev   254.844440                       # Bytes accessed per row activation
system.mem_cntrl.bytesPerActivate::0-127          500     45.58%     45.58% # Bytes accessed per row activation
system.mem_cntrl.bytesPerActivate::128-255          304     27.71%     73.29% # Bytes accessed per row activation
system.mem_cntrl.bytesPerActivate::256-383           96      8.75%     82.04% # Bytes accessed per row activation
system.mem_cntrl.bytesPerActivate::384-511           62      5.65%     87.69% # Bytes accessed per row activation
system.mem_cntrl.bytesPerActivate::512-639           30      2.73%     90.43% # Bytes accessed per row activation
system.mem_cntrl.bytesPerActivate::640-767           19      1.73%     92.16% # Bytes accessed per row activation
system.mem_cntrl.bytesPerActivate::768-895           22      2.01%     94.17% # Bytes accessed per row activation
system.mem_cntrl.bytesPerActivate::896-1023            9      0.82%     94.99% # Bytes accessed per row activation
system.mem_cntrl.bytesPerActivate::1024-1151           55      5.01%    100.00% # Bytes accessed per row activation
system.mem_cntrl.bytesPerActivate::total         1097                       # Bytes accessed per row activation
system.mem_cntrl.rdPerTurnAround::samples           32                       # Reads before turning the bus around for writes
system.mem_cntrl.rdPerTurnAround::mean      94.093750                       # Reads before turning the bus around for writes
system.mem_cntrl.rdPerTurnAround::gmean     65.392018                       # Reads before turning the bus around for writes
system.mem_cntrl.rdPerTurnAround::stdev     94.006986                       # Reads before turning the bus around for writes
system.mem_cntrl.rdPerTurnAround::16-31             7     21.88%     21.88% # Reads before turning the bus around for writes
system.mem_cntrl.rdPerTurnAround::32-47             6     18.75%     40.62% # Reads before turning the bus around for writes
system.mem_cntrl.rdPerTurnAround::48-63             4     12.50%     53.12% # Reads before turning the bus around for writes
system.mem_cntrl.rdPerTurnAround::64-79             4     12.50%     65.62% # Reads before turning the bus around for writes
system.mem_cntrl.rdPerTurnAround::80-95             2      6.25%     71.88% # Reads before turning the bus around for writes
system.mem_cntrl.rdPerTurnAround::96-111            2      6.25%     78.12% # Reads before turning the bus around for writes
system.mem_cntrl.rdPerTurnAround::112-127            1      3.12%     81.25% # Reads before turning the bus around for writes
system.mem_cntrl.rdPerTurnAround::160-175            1      3.12%     84.38% # Reads before turning the bus around for writes
system.mem_cntrl.rdPerTurnAround::224-239            1      3.12%     87.50% # Reads before turning the bus around for writes
system.mem_cntrl.rdPerTurnAround::256-271            3      9.38%     96.88% # Reads before turning the bus around for writes
system.mem_cntrl.rdPerTurnAround::400-415            1      3.12%    100.00% # Reads before turning the bus around for writes
system.mem_cntrl.rdPerTurnAround::total            32                       # Reads before turning the bus around for writes
system.mem_cntrl.wrPerTurnAround::samples           32                       # Writes before turning the bus around for reads
system.mem_cntrl.wrPerTurnAround::mean      16.625000                       # Writes before turning the bus around for reads
system.mem_cntrl.wrPerTurnAround::gmean     16.599888                       # Writes before turning the bus around for reads
system.mem_cntrl.wrPerTurnAround::stdev      0.941858                       # Writes before turning the bus around for reads
system.mem_cntrl.wrPerTurnAround::16               22     68.75%     68.75% # Writes before turning the bus around for reads
system.mem_cntrl.wrPerTurnAround::18               10     31.25%    100.00% # Writes before turning the bus around for reads
system.mem_cntrl.wrPerTurnAround::total            32                       # Writes before turning the bus around for reads
system.mem_cntrl.totQLat                     66328500                       # Total ticks spent queuing
system.mem_cntrl.totMemAccLat               126816000                       # Total ticks spent from burst creation until serviced by the DRAM
system.mem_cntrl.totBusLat                   16130000                       # Total ticks spent in databus transfers
system.mem_cntrl.avgQLat                     20560.60                       # Average queueing delay per DRAM burst
system.mem_cntrl.avgBusLat                    5000.00                       # Average bus latency per DRAM burst
system.mem_cntrl.avgMemAccLat                39310.60                       # Average memory access latency per DRAM burst
system.mem_cntrl.avgRdBW                       166.55                       # Average DRAM read bandwidth in MiByte/s
system.mem_cntrl.avgWrBW                        27.47                       # Average achieved write bandwidth in MiByte/s
system.mem_cntrl.avgRdBWSys                     72.38                       # Average system read bandwidth in MiByte/s
system.mem_cntrl.avgWrBWSys                     27.83                       # Average system write bandwidth in MiByte/s
system.mem_cntrl.peakBW                      12800.00                       # Theoretical peak bandwidth in MiByte/s
system.mem_cntrl.busUtil                         1.52                       # Data bus utilization in percentage
system.mem_cntrl.busUtilRead                     1.30                       # Data bus utilization in percentage for reads
system.mem_cntrl.busUtilWrite                    0.21                       # Data bus utilization in percentage for writes
system.mem_cntrl.avgRdQLen                       1.05                       # Average read queue length when enqueuing
system.mem_cntrl.avgWrQLen                      24.43                       # Average write queue length when enqueuing
system.mem_cntrl.readRowHits                     2387                       # Number of row buffer hits during reads
system.mem_cntrl.writeRowHits                     272                       # Number of row buffer hits during writes
system.mem_cntrl.readRowHitRate                 73.99                       # Row buffer hit rate for reads
system.mem_cntrl.writeRowHitRate                50.46                       # Row buffer hit rate for writes
system.mem_cntrl.avgGap                     328996.68                       # Average gap between requests
system.mem_cntrl.pageHitRate                    70.62                       # Row buffer hit rate, read and write combined
system.mem_cntrl_0.actEnergy                  4141200                       # Energy for activate commands per rank (pJ)
system.mem_cntrl_0.preEnergy                  2189715                       # Energy for precharge commands per rank (pJ)
system.mem_cntrl_0.readEnergy                12537840                       # Energy for read commands per rank (pJ)
system.mem_cntrl_0.writeEnergy                 981360                       # Energy for write commands per rank (pJ)
system.mem_cntrl_0.refreshEnergy         92196000.000000                       # Energy for refresh commands per rank (pJ)
system.mem_cntrl_0.actBackEnergy             55423950                       # Energy for active background per rank (pJ)
system.mem_cntrl_0.preBackEnergy              3161760                       # Energy for precharge background per rank (pJ)
system.mem_cntrl_0.actPowerDownEnergy       302677410                       # Energy for active power-down per rank (pJ)
system.mem_cntrl_0.prePowerDownEnergy       108569280                       # Energy for precharge power-down per rank (pJ)
system.mem_cntrl_0.selfRefreshEnergy         46791120                       # Energy for self refresh per rank (pJ)
system.mem_cntrl_0.totalEnergy              628669635                       # Total energy per rank (pJ)
system.mem_cntrl_0.averagePower            507.147671                       # Core power per rank (mW)
system.mem_cntrl_0.totalIdleTime           1109390000                       # Total Idle time Per DRAM Rank
system.mem_cntrl_0.memoryStateTime::IDLE      4200000                       # Time in different power states
system.mem_cntrl_0.memoryStateTime::REF      39078000                       # Time in different power states
system.mem_cntrl_0.memoryStateTime::SREF    165052000                       # Time in different power states
system.mem_cntrl_0.memoryStateTime::PRE_PDN    282735500                       # Time in different power states
system.mem_cntrl_0.memoryStateTime::ACT      86430250                       # Time in different power states
system.mem_cntrl_0.memoryStateTime::ACT_PDN    663830500                       # Time in different power states
system.mem_cntrl_1.actEnergy                  3727080                       # Energy for activate commands per rank (pJ)
system.mem_cntrl_1.preEnergy                  1973400                       # Energy for precharge commands per rank (pJ)
system.mem_cntrl_1.readEnergy                10538640                       # Energy for read commands per rank (pJ)
system.mem_cntrl_1.writeEnergy                1795680                       # Energy for write commands per rank (pJ)
system.mem_cntrl_1.refreshEnergy         87893520.000000                       # Energy for refresh commands per rank (pJ)
system.mem_cntrl_1.actBackEnergy             46279440                       # Energy for active background per rank (pJ)
system.mem_cntrl_1.preBackEnergy              3343680                       # Energy for precharge background per rank (pJ)
system.mem_cntrl_1.actPowerDownEnergy       284858070                       # Energy for active power-down per rank (pJ)
system.mem_cntrl_1.prePowerDownEnergy       105372000                       # Energy for precharge power-down per rank (pJ)
system.mem_cntrl_1.selfRefreshEnergy         64906500                       # Energy for self refresh per rank (pJ)
system.mem_cntrl_1.totalEnergy              610688010                       # Total energy per rank (pJ)
system.mem_cntrl_1.averagePower            492.641897                       # Core power per rank (mW)
system.mem_cntrl_1.totalIdleTime           1129604250                       # Total Idle time Per DRAM Rank
system.mem_cntrl_1.memoryStateTime::IDLE      4686000                       # Time in different power states
system.mem_cntrl_1.memoryStateTime::REF      37270000                       # Time in different power states
system.mem_cntrl_1.memoryStateTime::SREF    235928500                       # Time in different power states
system.mem_cntrl_1.memoryStateTime::PRE_PDN    274399250                       # Time in different power states
system.mem_cntrl_1.memoryStateTime::ACT      68039500                       # Time in different power states
system.mem_cntrl_1.memoryStateTime::ACT_PDN    619537000                       # Time in different power states
system.pwrStateResidencyTicks::UNDEFINED 4807093614500                       # Cumulative time (in ticks) in various power states
system.apicbridge.pwrStateResidencyTicks::UNDEFINED 4807093614500                       # Cumulative time (in ticks) in various power states
system.bridge.pwrStateResidencyTicks::UNDEFINED 4807093614500                       # Cumulative time (in ticks) in various power states
system.cpu.branchPred.lookups                  451546                       # Number of BP lookups
system.cpu.branchPred.condPredicted            451546                       # Number of conditional branches predicted
system.cpu.branchPred.condIncorrect             52889                       # Number of conditional branches incorrect
system.cpu.branchPred.BTBLookups               377420                       # Number of BTB lookups
system.cpu.branchPred.BTBHits                       0                       # Number of BTB hits
system.cpu.branchPred.BTBCorrect                    0                       # Number of correct BTB predictions (this stat may not work properly.
system.cpu.branchPred.BTBHitPct              0.000000                       # BTB Hit Percentage
system.cpu.branchPred.usedRAS                   44886                       # Number of times the RAS was used to get a target.
system.cpu.branchPred.RASInCorrect              10652                       # Number of incorrect RAS predictions.
system.cpu.branchPred.correctpredictionPercent    88.287129                       # Correct prediction percentage
system.cpu.branchPred.indirectLookups          377420                       # Number of indirect predictor lookups.
system.cpu.branchPred.indirectHits             101477                       # Number of indirect target hits.
system.cpu.branchPred.indirectMisses           275943                       # Number of indirect misses.
system.cpu.branchPredindirectMispredicted        37462                       # Number of mispredicted indirect branches.
system.cpu.dtb.walker.pwrStateResidencyTicks::UNDEFINED 4807093614500                       # Cumulative time (in ticks) in various power states
system.cpu.dtb.rdAccesses                      361592                       # TLB accesses on read requests
system.cpu.dtb.wrAccesses                      225866                       # TLB accesses on write requests
system.cpu.dtb.rdMisses                          9267                       # TLB misses on read requests
system.cpu.dtb.wrMisses                          1813                       # TLB misses on write requests
system.cpu.apic_clk_domain.clock                 8000                       # Clock period in ticks
system.cpu.interrupts.pwrStateResidencyTicks::UNDEFINED 4807093614500                       # Cumulative time (in ticks) in various power states
system.cpu.itb.walker.pwrStateResidencyTicks::UNDEFINED 4807093614500                       # Cumulative time (in ticks) in various power states
system.cpu.itb.rdAccesses                           0                       # TLB accesses on read requests
system.cpu.itb.wrAccesses                      284196                       # TLB accesses on write requests
system.cpu.itb.rdMisses                             0                       # TLB misses on read requests
system.cpu.itb.wrMisses                          1491                       # TLB misses on write requests
system.cpu.pwrStateResidencyTicks::ON      2519926500                       # Cumulative time (in ticks) in various power states
system.cpu.numCycles                          2479237                       # number of cpu cycles simulated
system.cpu.numWorkItemsStarted                      0                       # number of work items this cpu started
system.cpu.numWorkItemsCompleted                    0                       # number of work items this cpu completed
system.cpu.fetch.icacheStallCycles             578108                       # Number of cycles fetch is stalled on an Icache miss
system.cpu.fetch.Insts                        2045609                       # Number of instructions fetch has processed
system.cpu.fetch.Branches                      451546                       # Number of branches that fetch encountered
system.cpu.fetch.predictedBranches             146363                       # Number of branches that fetch has predicted taken
system.cpu.fetch.Cycles                       1601247                       # Number of cycles fetch has run and was not squashing or blocked
system.cpu.fetch.SquashCycles                  114684                       # Number of cycles fetch has spent squashing
system.cpu.fetch.TlbCycles                      51804                       # Number of cycles fetch has spent waiting for tlb
system.cpu.fetch.MiscStallCycles                 1578                       # Number of cycles fetch has spent waiting on interrupts, or bad addresses, or out of MSHRs
system.cpu.fetch.PendingTrapStallCycles         37267                       # Number of stall cycles due to pending traps
system.cpu.fetch.PendingQuiesceStallCycles           27                       # Number of stall cycles due to pending quiesce instructions
system.cpu.fetch.IcacheWaitRetryStallCycles            2                       # Number of stall cycles due to full MSHR
system.cpu.fetch.CacheLines                    278200                       # Number of cache lines fetched
system.cpu.fetch.IcacheSquashes                 20584                       # Number of outstanding Icache misses that were squashed
system.cpu.fetch.ItlbSquashes                     788                       # Number of outstanding ITLB misses that were squashed
system.cpu.fetch.rateDist::samples            2327375                       # Number of instructions fetched each cycle (Total)
system.cpu.fetch.rateDist::mean              1.732019                       # Number of instructions fetched each cycle (Total)
system.cpu.fetch.rateDist::stdev             3.090556                       # Number of instructions fetched each cycle (Total)
system.cpu.fetch.rateDist::underflows               0      0.00%      0.00% # Number of instructions fetched each cycle (Total)
system.cpu.fetch.rateDist::0                  1683379     72.33%     72.33% # Number of instructions fetched each cycle (Total)
system.cpu.fetch.rateDist::1                    57770      2.48%     74.81% # Number of instructions fetched each cycle (Total)
system.cpu.fetch.rateDist::2                    30812      1.32%     76.14% # Number of instructions fetched each cycle (Total)
system.cpu.fetch.rateDist::3                    37478      1.61%     77.75% # Number of instructions fetched each cycle (Total)
system.cpu.fetch.rateDist::4                    36893      1.59%     79.33% # Number of instructions fetched each cycle (Total)
system.cpu.fetch.rateDist::5                    33519      1.44%     80.77% # Number of instructions fetched each cycle (Total)
system.cpu.fetch.rateDist::6                    32839      1.41%     82.18% # Number of instructions fetched each cycle (Total)
system.cpu.fetch.rateDist::7                    30451      1.31%     83.49% # Number of instructions fetched each cycle (Total)
system.cpu.fetch.rateDist::8                   384234     16.51%    100.00% # Number of instructions fetched each cycle (Total)
system.cpu.fetch.rateDist::overflows                0      0.00%    100.00% # Number of instructions fetched each cycle (Total)
system.cpu.fetch.rateDist::min_value                0                       # Number of instructions fetched each cycle (Total)
system.cpu.fetch.rateDist::max_value                8                       # Number of instructions fetched each cycle (Total)
system.cpu.fetch.rateDist::total              2327375                       # Number of instructions fetched each cycle (Total)
system.cpu.fetch.branchRate                  0.182131                       # Number of branch fetches per cycle
system.cpu.fetch.rate                        0.825096                       # Number of inst fetches per cycle
system.cpu.decode.IdleCycles                   544104                       # Number of cycles decode is idle
system.cpu.decode.BlockedCycles               1196523                       # Number of cycles decode is blocked
system.cpu.decode.RunCycles                    461776                       # Number of cycles decode is running
system.cpu.decode.UnblockCycles                 67630                       # Number of cycles decode is unblocking
system.cpu.decode.SquashCycles                  57342                       # Number of cycles decode is squashing
system.cpu.decode.DecodedInsts                3611085                       # Number of instructions handled by decode
system.cpu.rename.SquashCycles                  57342                       # Number of cycles rename is squashing
system.cpu.rename.IdleCycles                   587933                       # Number of cycles rename is idle
system.cpu.rename.BlockCycles                  545624                       # Number of cycles rename is blocking
system.cpu.rename.serializeStallCycles         365566                       # count of cycles rename stalled for serializing inst
system.cpu.rename.RunCycles                    481408                       # Number of cycles rename is running
system.cpu.rename.UnblockCycles                289502                       # Number of cycles rename is unblocking
system.cpu.rename.RenamedInsts                3379278                       # Number of instructions processed by rename
system.cpu.rename.ROBFullEvents                  3638                       # Number of times rename has blocked due to ROB full
system.cpu.rename.IQFullEvents                  25643                       # Number of times rename has blocked due to IQ full
system.cpu.rename.LQFullEvents                  21286                       # Number of times rename has blocked due to LQ full
system.cpu.rename.SQFullEvents                 223527                       # Number of times rename has blocked due to SQ full
system.cpu.rename.RenamedOperands             3716687                       # Number of destination operands rename has renamed
system.cpu.rename.RenameLookups               8470779                       # Number of register rename lookups that rename has made
system.cpu.rename.int_rename_lookups          5208033                       # Number of integer rename lookups
system.cpu.rename.fp_rename_lookups             13100                       # Number of floating rename lookups
system.cpu.rename.CommittedMaps               1981472                       # Number of HB maps that are committed
system.cpu.rename.UndoneMaps                  1735215                       # Number of HB maps that are undone due to squashing
system.cpu.rename.serializingInsts              14431                       # count of serializing insts renamed
system.cpu.rename.tempSerializingInsts          14462                       # count of temporary serializing insts renamed
system.cpu.rename.skidInsts                    282190                       # count of insts added to the skid buffer
system.cpu.memDep0.insertedLoads               441223                       # Number of loads inserted to the mem dependence unit.
system.cpu.memDep0.insertedStores              277564                       # Number of stores inserted to the mem dependence unit.
system.cpu.memDep0.conflictingLoads             32426                       # Number of conflicting loads.
system.cpu.memDep0.conflictingStores            31601                       # Number of conflicting stores.
system.cpu.iq.iqInstsAdded                    2990185                       # Number of instructions added to the IQ (excludes non-spec)
system.cpu.iq.iqNonSpecInstsAdded               16916                       # Number of non-speculative instructions added to the IQ
system.cpu.iq.iqInstsIssued                   2580655                       # Number of instructions issued
system.cpu.iq.iqSquashedInstsIssued             20841                       # Number of squashed instructions issued
system.cpu.iq.iqSquashedInstsExamined         1235009                       # Number of squashed instructions iterated over during squash; mainly for profiling
system.cpu.iq.iqSquashedOperandsExamined      1803968                       # Number of squashed operands that are examined and possibly removed from graph
system.cpu.iq.iqSquashedNonSpecRemoved           5235                       # Number of squashed non-spec instructions that were removed
system.cpu.iq.issued_per_cycle::samples       2327375                       # Number of insts issued each cycle
system.cpu.iq.issued_per_cycle::mean         1.108826                       # Number of insts issued each cycle
system.cpu.iq.issued_per_cycle::stdev        1.990449                       # Number of insts issued each cycle
system.cpu.iq.issued_per_cycle::underflows            0      0.00%      0.00% # Number of insts issued each cycle
system.cpu.iq.issued_per_cycle::0             1568082     67.38%     67.38% # Number of insts issued each cycle
system.cpu.iq.issued_per_cycle::1              193050      8.29%     75.67% # Number of insts issued each cycle
system.cpu.iq.issued_per_cycle::2              129158      5.55%     81.22% # Number of insts issued each cycle
system.cpu.iq.issued_per_cycle::3              104197      4.48%     85.70% # Number of insts issued each cycle
system.cpu.iq.issued_per_cycle::4               95720      4.11%     89.81% # Number of insts issued each cycle
system.cpu.iq.issued_per_cycle::5               86774      3.73%     93.54% # Number of insts issued each cycle
system.cpu.iq.issued_per_cycle::6               78404      3.37%     96.91% # Number of insts issued each cycle
system.cpu.iq.issued_per_cycle::7               46396      1.99%     98.90% # Number of insts issued each cycle
system.cpu.iq.issued_per_cycle::8               25594      1.10%    100.00% # Number of insts issued each cycle
system.cpu.iq.issued_per_cycle::overflows            0      0.00%    100.00% # Number of insts issued each cycle
system.cpu.iq.issued_per_cycle::min_value            0                       # Number of insts issued each cycle
system.cpu.iq.issued_per_cycle::max_value            8                       # Number of insts issued each cycle
system.cpu.iq.issued_per_cycle::total         2327375                       # Number of insts issued each cycle
system.cpu.iq.fu_full::No_OpClass                   0      0.00%      0.00% # attempts to use FU when none available
system.cpu.iq.fu_full::IntAlu                   26467     67.72%     67.72% # attempts to use FU when none available
system.cpu.iq.fu_full::IntMult                      0      0.00%     67.72% # attempts to use FU when none available
system.cpu.iq.fu_full::IntDiv                       0      0.00%     67.72% # attempts to use FU when none available
system.cpu.iq.fu_full::FloatAdd                    61      0.16%     67.88% # attempts to use FU when none available
system.cpu.iq.fu_full::FloatCmp                     0      0.00%     67.88% # attempts to use FU when none available
system.cpu.iq.fu_full::FloatCvt                     0      0.00%     67.88% # attempts to use FU when none available
system.cpu.iq.fu_full::FloatMult                    0      0.00%     67.88% # attempts to use FU when none available
system.cpu.iq.fu_full::FloatMultAcc                 0      0.00%     67.88% # attempts to use FU when none available
system.cpu.iq.fu_full::FloatDiv                     0      0.00%     67.88% # attempts to use FU when none available
system.cpu.iq.fu_full::FloatMisc                    0      0.00%     67.88% # attempts to use FU when none available
system.cpu.iq.fu_full::FloatSqrt                    0      0.00%     67.88% # attempts to use FU when none available
system.cpu.iq.fu_full::SimdAdd                      0      0.00%     67.88% # attempts to use FU when none available
system.cpu.iq.fu_full::SimdAddAcc                   0      0.00%     67.88% # attempts to use FU when none available
system.cpu.iq.fu_full::SimdAlu                      0      0.00%     67.88% # attempts to use FU when none available
system.cpu.iq.fu_full::SimdCmp                      0      0.00%     67.88% # attempts to use FU when none available
system.cpu.iq.fu_full::SimdCvt                      0      0.00%     67.88% # attempts to use FU when none available
system.cpu.iq.fu_full::SimdMisc                     0      0.00%     67.88% # attempts to use FU when none available
system.cpu.iq.fu_full::SimdMult                     0      0.00%     67.88% # attempts to use FU when none available
system.cpu.iq.fu_full::SimdMultAcc                  0      0.00%     67.88% # attempts to use FU when none available
system.cpu.iq.fu_full::SimdShift                    0      0.00%     67.88% # attempts to use FU when none available
system.cpu.iq.fu_full::SimdShiftAcc                 0      0.00%     67.88% # attempts to use FU when none available
system.cpu.iq.fu_full::SimdSqrt                     0      0.00%     67.88% # attempts to use FU when none available
system.cpu.iq.fu_full::SimdFloatAdd                 0      0.00%     67.88% # attempts to use FU when none available
system.cpu.iq.fu_full::SimdFloatAlu                 0      0.00%     67.88% # attempts to use FU when none available
system.cpu.iq.fu_full::SimdFloatCmp                 0      0.00%     67.88% # attempts to use FU when none available
system.cpu.iq.fu_full::SimdFloatCvt                 0      0.00%     67.88% # attempts to use FU when none available
system.cpu.iq.fu_full::SimdFloatDiv                 0      0.00%     67.88% # attempts to use FU when none available
system.cpu.iq.fu_full::SimdFloatMisc                0      0.00%     67.88% # attempts to use FU when none available
system.cpu.iq.fu_full::SimdFloatMult                0      0.00%     67.88% # attempts to use FU when none available
system.cpu.iq.fu_full::SimdFloatMultAcc             0      0.00%     67.88% # attempts to use FU when none available
system.cpu.iq.fu_full::SimdFloatSqrt                0      0.00%     67.88% # attempts to use FU when none available
system.cpu.iq.fu_full::MemRead                   8884     22.73%     90.61% # attempts to use FU when none available
system.cpu.iq.fu_full::MemWrite                  3629      9.29%     99.89% # attempts to use FU when none available
system.cpu.iq.fu_full::FloatMemRead                21      0.05%     99.95% # attempts to use FU when none available
system.cpu.iq.fu_full::FloatMemWrite               21      0.05%    100.00% # attempts to use FU when none available
system.cpu.iq.fu_full::IprAccess                    0      0.00%    100.00% # attempts to use FU when none available
system.cpu.iq.fu_full::InstPrefetch                 0      0.00%    100.00% # attempts to use FU when none available
system.cpu.iq.FU_type_0::No_OpClass             35282      1.37%      1.37% # Type of FU issued
system.cpu.iq.FU_type_0::IntAlu               1918935     74.36%     75.73% # Type of FU issued
system.cpu.iq.FU_type_0::IntMult                 1454      0.06%     75.78% # Type of FU issued
system.cpu.iq.FU_type_0::IntDiv                  1796      0.07%     75.85% # Type of FU issued
system.cpu.iq.FU_type_0::FloatAdd                3224      0.12%     75.98% # Type of FU issued
system.cpu.iq.FU_type_0::FloatCmp                   0      0.00%     75.98% # Type of FU issued
system.cpu.iq.FU_type_0::FloatCvt                   4      0.00%     75.98% # Type of FU issued
system.cpu.iq.FU_type_0::FloatMult                  0      0.00%     75.98% # Type of FU issued
system.cpu.iq.FU_type_0::FloatMultAcc               0      0.00%     75.98% # Type of FU issued
system.cpu.iq.FU_type_0::FloatDiv                   0      0.00%     75.98% # Type of FU issued
system.cpu.iq.FU_type_0::FloatMisc                  0      0.00%     75.98% # Type of FU issued
system.cpu.iq.FU_type_0::FloatSqrt                  0      0.00%     75.98% # Type of FU issued
system.cpu.iq.FU_type_0::SimdAdd                    0      0.00%     75.98% # Type of FU issued
system.cpu.iq.FU_type_0::SimdAddAcc                 0      0.00%     75.98% # Type of FU issued
system.cpu.iq.FU_type_0::SimdAlu                    0      0.00%     75.98% # Type of FU issued
system.cpu.iq.FU_type_0::SimdCmp                    0      0.00%     75.98% # Type of FU issued
system.cpu.iq.FU_type_0::SimdCvt                    0      0.00%     75.98% # Type of FU issued
system.cpu.iq.FU_type_0::SimdMisc                   0      0.00%     75.98% # Type of FU issued
system.cpu.iq.FU_type_0::SimdMult                   0      0.00%     75.98% # Type of FU issued
system.cpu.iq.FU_type_0::SimdMultAcc                0      0.00%     75.98% # Type of FU issued
system.cpu.iq.FU_type_0::SimdShift                  0      0.00%     75.98% # Type of FU issued
system.cpu.iq.FU_type_0::SimdShiftAcc               0      0.00%     75.98% # Type of FU issued
system.cpu.iq.FU_type_0::SimdSqrt                   0      0.00%     75.98% # Type of FU issued
system.cpu.iq.FU_type_0::SimdFloatAdd               0      0.00%     75.98% # Type of FU issued
system.cpu.iq.FU_type_0::SimdFloatAlu               0      0.00%     75.98% # Type of FU issued
system.cpu.iq.FU_type_0::SimdFloatCmp               0      0.00%     75.98% # Type of FU issued
system.cpu.iq.FU_type_0::SimdFloatCvt               0      0.00%     75.98% # Type of FU issued
system.cpu.iq.FU_type_0::SimdFloatDiv               0      0.00%     75.98% # Type of FU issued
system.cpu.iq.FU_type_0::SimdFloatMisc              0      0.00%     75.98% # Type of FU issued
system.cpu.iq.FU_type_0::SimdFloatMult              0      0.00%     75.98% # Type of FU issued
system.cpu.iq.FU_type_0::SimdFloatMultAcc            0      0.00%     75.98% # Type of FU issued
system.cpu.iq.FU_type_0::SimdFloatSqrt              0      0.00%     75.98% # Type of FU issued
system.cpu.iq.FU_type_0::MemRead               381105     14.77%     90.74% # Type of FU issued
system.cpu.iq.FU_type_0::MemWrite              237170      9.19%     99.93% # Type of FU issued
system.cpu.iq.FU_type_0::FloatMemRead            1573      0.06%    100.00% # Type of FU issued
system.cpu.iq.FU_type_0::FloatMemWrite            112      0.00%    100.00% # Type of FU issued
system.cpu.iq.FU_type_0::IprAccess                  0      0.00%    100.00% # Type of FU issued
system.cpu.iq.FU_type_0::InstPrefetch               0      0.00%    100.00% # Type of FU issued
system.cpu.iq.FU_type_0::total                2580655                       # Type of FU issued
system.cpu.iq.rate                           1.040907                       # Inst issue rate
system.cpu.iq.fu_busy_cnt                       39083                       # FU busy when requested
system.cpu.iq.fu_busy_rate                   0.015145                       # FU busy rate (busy events/executed inst)
system.cpu.iq.int_inst_queue_reads            7538087                       # Number of integer instruction queue reads
system.cpu.iq.int_inst_queue_writes           4230806                       # Number of integer instruction queue writes
system.cpu.iq.int_inst_queue_wakeup_accesses      2410164                       # Number of integer instruction queue wakeup accesses
system.cpu.iq.fp_inst_queue_reads               10522                       # Number of floating instruction queue reads
system.cpu.iq.fp_inst_queue_writes              12514                       # Number of floating instruction queue writes
system.cpu.iq.fp_inst_queue_wakeup_accesses         4364                       # Number of floating instruction queue wakeup accesses
system.cpu.iq.int_alu_accesses                2579269                       # Number of integer alu accesses
system.cpu.iq.fp_alu_accesses                    5187                       # Number of floating point alu accesses
system.cpu.iew.lsq.thread0.forwLoads            31705                       # Number of loads that had data forwarded from stores
system.cpu.iew.lsq.thread0.invAddrLoads             0                       # Number of loads ignored due to an invalid address
system.cpu.iew.lsq.thread0.squashedLoads       182117                       # Number of loads squashed
system.cpu.iew.lsq.thread0.ignoredResponses          656                       # Number of memory responses ignored because the instruction is squashed
system.cpu.iew.lsq.thread0.memOrderViolation         1248                       # Number of memory ordering violations
system.cpu.iew.lsq.thread0.squashedStores        87611                       # Number of stores squashed
system.cpu.iew.lsq.thread0.invAddrSwpfs             0                       # Number of software prefetches ignored due to an invalid address
system.cpu.iew.lsq.thread0.blockedLoads             0                       # Number of blocked loads due to partial load-store forwarding
system.cpu.iew.lsq.thread0.rescheduledLoads         1422                       # Number of loads that were rescheduled
system.cpu.iew.lsq.thread0.cacheBlocked          2231                       # Number of times an access to memory failed due to the cache being blocked
system.cpu.iew.iewIdleCycles                        0                       # Number of cycles IEW is idle
system.cpu.iew.iewSquashCycles                  57342                       # Number of cycles IEW is squashing
system.cpu.iew.iewBlockCycles                  294596                       # Number of cycles IEW is blocking
system.cpu.iew.iewUnblockCycles                130655                       # Number of cycles IEW is unblocking
system.cpu.iew.iewDispatchedInsts             3007101                       # Number of instructions dispatched to IQ
system.cpu.iew.iewDispSquashedInsts              5134                       # Number of squashed instructions skipped by dispatch
system.cpu.iew.iewDispLoadInsts                441223                       # Number of dispatched load instructions
system.cpu.iew.iewDispStoreInsts               277564                       # Number of dispatched store instructions
system.cpu.iew.iewDispNonSpecInsts              15418                       # Number of dispatched non-speculative instructions
system.cpu.iew.iewIQFullEvents                   1218                       # Number of times the IQ has become full, causing a stall
system.cpu.iew.iewLSQFullEvents                128994                       # Number of times the LSQ has become full, causing a stall
system.cpu.iew.memOrderViolationEvents           1248                       # Number of memory order violations
system.cpu.iew.predictedTakenIncorrect          16130                       # Number of branches that were predicted taken incorrectly
system.cpu.iew.predictedNotTakenIncorrect        54941                       # Number of branches that were predicted not taken incorrectly
system.cpu.iew.branchMispredicts                71071                       # Number of branch mispredicts detected at execute
system.cpu.iew.iewExecutedInsts               2461353                       # Number of executed instructions
system.cpu.iew.iewExecLoadInsts                352274                       # Number of load instructions executed
system.cpu.iew.iewExecSquashedInsts            108339                       # Number of squashed instructions skipped in execute
system.cpu.iew.exec_swp                             0                       # number of swp insts executed
system.cpu.iew.exec_nop                             0                       # number of nop insts executed
system.cpu.iew.exec_refs                       576346                       # number of memory reference insts executed
system.cpu.iew.exec_branches                   245000                       # Number of branches executed
system.cpu.iew.exec_stores                     224072                       # Number of stores executed
system.cpu.iew.exec_rate                     0.992786                       # Inst execution rate
system.cpu.iew.wb_sent                        2432180                       # cumulative count of insts sent to commit
system.cpu.iew.wb_count                       2414528                       # cumulative count of insts written-back
system.cpu.iew.wb_producers                   1592845                       # num instructions producing a value
system.cpu.iew.wb_consumers                   2555623                       # num instructions consuming a value
system.cpu.iew.wb_rate                       0.973900                       # insts written-back per cycle
system.cpu.iew.wb_fanout                     0.623271                       # average fanout of values written-back
system.cpu.commit.commitSquashedInsts         1233798                       # The number of squashed insts skipped by commit
system.cpu.commit.commitNonSpecStalls           11681                       # The number of times commit has been forced to stall to communicate backwards
system.cpu.commit.branchMispredicts             54807                       # The number of times a branch was mispredicted
system.cpu.commit.committed_per_cycle::samples      2124029                       # Number of insts commited each cycle
system.cpu.commit.committed_per_cycle::mean     0.834307                       # Number of insts commited each cycle
system.cpu.commit.committed_per_cycle::stdev     1.921955                       # Number of insts commited each cycle
system.cpu.commit.committed_per_cycle::underflows            0      0.00%      0.00% # Number of insts commited each cycle
system.cpu.commit.committed_per_cycle::0      1591462     74.93%     74.93% # Number of insts commited each cycle
system.cpu.commit.committed_per_cycle::1       189403      8.92%     83.84% # Number of insts commited each cycle
system.cpu.commit.committed_per_cycle::2        76869      3.62%     87.46% # Number of insts commited each cycle
system.cpu.commit.committed_per_cycle::3        78623      3.70%     91.16% # Number of insts commited each cycle
system.cpu.commit.committed_per_cycle::4        44271      2.08%     93.25% # Number of insts commited each cycle
system.cpu.commit.committed_per_cycle::5        27756      1.31%     94.56% # Number of insts commited each cycle
system.cpu.commit.committed_per_cycle::6        17785      0.84%     95.39% # Number of insts commited each cycle
system.cpu.commit.committed_per_cycle::7        12372      0.58%     95.98% # Number of insts commited each cycle
system.cpu.commit.committed_per_cycle::8        85488      4.02%    100.00% # Number of insts commited each cycle
system.cpu.commit.committed_per_cycle::overflows            0      0.00%    100.00% # Number of insts commited each cycle
system.cpu.commit.committed_per_cycle::min_value            0                       # Number of insts commited each cycle
system.cpu.commit.committed_per_cycle::max_value            8                       # Number of insts commited each cycle
system.cpu.commit.committed_per_cycle::total      2124029                       # Number of insts commited each cycle
system.cpu.commit.committedInsts               945905                       # Number of instructions committed
system.cpu.commit.committedOps                1772092                       # Number of ops (including micro ops) committed
system.cpu.commit.swp_count                         0                       # Number of s/w prefetches committed
system.cpu.commit.refs                         449059                       # Number of memory references committed
system.cpu.commit.loads                        259106                       # Number of loads committed
system.cpu.commit.membars                        1130                       # Number of memory barriers committed
system.cpu.commit.branches                     190203                       # Number of branches committed
system.cpu.commit.vec_insts                         0                       # Number of committed Vector instructions.
system.cpu.commit.fp_insts                       2404                       # Number of committed floating point instructions.
system.cpu.commit.int_insts                   1754358                       # Number of committed integer instructions.
system.cpu.commit.function_calls                19903                       # Number of function calls committed.
system.cpu.commit.op_class_0::No_OpClass        14748      0.83%      0.83% # Class of committed instruction
system.cpu.commit.op_class_0::IntAlu          1303546     73.56%     74.39% # Class of committed instruction
system.cpu.commit.op_class_0::IntMult            1269      0.07%     74.46% # Class of committed instruction
system.cpu.commit.op_class_0::IntDiv             1648      0.09%     74.56% # Class of committed instruction
system.cpu.commit.op_class_0::FloatAdd           1822      0.10%     74.66% # Class of committed instruction
system.cpu.commit.op_class_0::FloatCmp              0      0.00%     74.66% # Class of committed instruction
system.cpu.commit.op_class_0::FloatCvt              0      0.00%     74.66% # Class of committed instruction
system.cpu.commit.op_class_0::FloatMult             0      0.00%     74.66% # Class of committed instruction
system.cpu.commit.op_class_0::FloatMultAcc            0      0.00%     74.66% # Class of committed instruction
system.cpu.commit.op_class_0::FloatDiv              0      0.00%     74.66% # Class of committed instruction
system.cpu.commit.op_class_0::FloatMisc             0      0.00%     74.66% # Class of committed instruction
system.cpu.commit.op_class_0::FloatSqrt             0      0.00%     74.66% # Class of committed instruction
system.cpu.commit.op_class_0::SimdAdd               0      0.00%     74.66% # Class of committed instruction
system.cpu.commit.op_class_0::SimdAddAcc            0      0.00%     74.66% # Class of committed instruction
system.cpu.commit.op_class_0::SimdAlu               0      0.00%     74.66% # Class of committed instruction
system.cpu.commit.op_class_0::SimdCmp               0      0.00%     74.66% # Class of committed instruction
system.cpu.commit.op_class_0::SimdCvt               0      0.00%     74.66% # Class of committed instruction
system.cpu.commit.op_class_0::SimdMisc              0      0.00%     74.66% # Class of committed instruction
system.cpu.commit.op_class_0::SimdMult              0      0.00%     74.66% # Class of committed instruction
system.cpu.commit.op_class_0::SimdMultAcc            0      0.00%     74.66% # Class of committed instruction
system.cpu.commit.op_class_0::SimdShift             0      0.00%     74.66% # Class of committed instruction
system.cpu.commit.op_class_0::SimdShiftAcc            0      0.00%     74.66% # Class of committed instruction
system.cpu.commit.op_class_0::SimdSqrt              0      0.00%     74.66% # Class of committed instruction
system.cpu.commit.op_class_0::SimdFloatAdd            0      0.00%     74.66% # Class of committed instruction
system.cpu.commit.op_class_0::SimdFloatAlu            0      0.00%     74.66% # Class of committed instruction
system.cpu.commit.op_class_0::SimdFloatCmp            0      0.00%     74.66% # Class of committed instruction
system.cpu.commit.op_class_0::SimdFloatCvt            0      0.00%     74.66% # Class of committed instruction
system.cpu.commit.op_class_0::SimdFloatDiv            0      0.00%     74.66% # Class of committed instruction
system.cpu.commit.op_class_0::SimdFloatMisc            0      0.00%     74.66% # Class of committed instruction
system.cpu.commit.op_class_0::SimdFloatMult            0      0.00%     74.66% # Class of committed instruction
system.cpu.commit.op_class_0::SimdFloatMultAcc            0      0.00%     74.66% # Class of committed instruction
system.cpu.commit.op_class_0::SimdFloatSqrt            0      0.00%     74.66% # Class of committed instruction
system.cpu.commit.op_class_0::MemRead          258652     14.60%     89.26% # Class of committed instruction
system.cpu.commit.op_class_0::MemWrite         189953     10.72%     99.97% # Class of committed instruction
system.cpu.commit.op_class_0::FloatMemRead          454      0.03%    100.00% # Class of committed instruction
system.cpu.commit.op_class_0::FloatMemWrite            0      0.00%    100.00% # Class of committed instruction
system.cpu.commit.op_class_0::IprAccess             0      0.00%    100.00% # Class of committed instruction
system.cpu.commit.op_class_0::InstPrefetch            0      0.00%    100.00% # Class of committed instruction
system.cpu.commit.op_class_0::total           1772092                       # Class of committed instruction
system.cpu.commit.bw_lim_events                 85488                       # number cycles where commit BW limit reached
system.cpu.rob.rob_reads                      5038880                       # The number of ROB reads
system.cpu.rob.rob_writes                     6219145                       # The number of ROB writes
system.cpu.timesIdled                            7414                       # Number of times that the entire CPU went into an idle state and unscheduled itself
system.cpu.idleCycles                          151862                       # Total number of cycles that the CPU has spent unscheduled due to idling
system.cpu.committedInsts                      945905                       # Number of Instructions Simulated
system.cpu.committedOps                       1772092                       # Number of Ops (including micro ops) Simulated
system.cpu.cpi                               2.621021                       # CPI: Cycles Per Instruction
system.cpu.cpi_total                         2.621021                       # CPI: Total CPI of All Threads
system.cpu.ipc                               0.381531                       # IPC: Instructions Per Cycle
system.cpu.ipc_total                         0.381531                       # IPC: Total IPC of All Threads
system.cpu.int_regfile_reads                  3629865                       # number of integer regfile reads
system.cpu.int_regfile_writes                 1927166                       # number of integer regfile writes
system.cpu.fp_regfile_reads                      6926                       # number of floating regfile reads
system.cpu.fp_regfile_writes                     3669                       # number of floating regfile writes
system.cpu.cc_regfile_reads                   1103877                       # number of cc regfile reads
system.cpu.cc_regfile_writes                   715287                       # number of cc regfile writes
system.cpu.misc_regfile_reads                 1114369                       # number of misc regfile reads
system.cpu.misc_regfile_writes                  13091                       # number of misc regfile writes
system.cpu.dcache.tags.pwrStateResidencyTicks::UNDEFINED 4807093614500                       # Cumulative time (in ticks) in various power states
system.cpu.dcache.tags.replacements             21365                       # number of replacements
system.cpu.dcache.tags.tagsinuse                 1024                       # Cycle average of tags in use
system.cpu.dcache.tags.total_refs              446440                       # Total number of references to valid blocks.
system.cpu.dcache.tags.sampled_refs             21365                       # Sample count of references to valid blocks.
system.cpu.dcache.tags.avg_refs             20.895858                       # Average number of references to valid blocks.
system.cpu.dcache.tags.warmup_cycle                 0                       # Cycle when the warmup percentage was hit.
system.cpu.dcache.tags.occ_blocks::cpu.data         1024                       # Average occupied blocks per requestor
system.cpu.dcache.tags.occ_percent::cpu.data            1                       # Average percentage of cache occupancy
system.cpu.dcache.tags.occ_percent::total            1                       # Average percentage of cache occupancy
system.cpu.dcache.tags.occ_task_id_blocks::1024         1024                       # Occupied blocks per task id
system.cpu.dcache.tags.age_task_id_blocks_1024::0           53                       # Occupied blocks per task id
system.cpu.dcache.tags.age_task_id_blocks_1024::1          715                       # Occupied blocks per task id
system.cpu.dcache.tags.age_task_id_blocks_1024::2          256                       # Occupied blocks per task id
system.cpu.dcache.tags.occ_task_id_percent::1024            1                       # Percentage of cache occupancy per task id
system.cpu.dcache.tags.tag_accesses           1034267                       # Number of tag accesses
system.cpu.dcache.tags.data_accesses          1034267                       # Number of data accesses
system.cpu.dcache.pwrStateResidencyTicks::UNDEFINED 4807093614500                       # Cumulative time (in ticks) in various power states
system.cpu.dcache.ReadReq_hits::cpu.data       289625                       # number of ReadReq hits
system.cpu.dcache.ReadReq_hits::total          289625                       # number of ReadReq hits
system.cpu.dcache.WriteReq_hits::cpu.data       180972                       # number of WriteReq hits
system.cpu.dcache.WriteReq_hits::total         180972                       # number of WriteReq hits
system.cpu.dcache.SoftPFReq_hits::cpu.data          548                       # number of SoftPFReq hits
system.cpu.dcache.SoftPFReq_hits::total           548                       # number of SoftPFReq hits
system.cpu.dcache.demand_hits::cpu.data        470597                       # number of demand (read+write) hits
system.cpu.dcache.demand_hits::total           470597                       # number of demand (read+write) hits
system.cpu.dcache.overall_hits::cpu.data       471145                       # number of overall hits
system.cpu.dcache.overall_hits::total          471145                       # number of overall hits
system.cpu.dcache.ReadReq_misses::cpu.data        23444                       # number of ReadReq misses
system.cpu.dcache.ReadReq_misses::total         23444                       # number of ReadReq misses
system.cpu.dcache.WriteReq_misses::cpu.data         8925                       # number of WriteReq misses
system.cpu.dcache.WriteReq_misses::total         8925                       # number of WriteReq misses
system.cpu.dcache.SoftPFReq_misses::cpu.data         2937                       # number of SoftPFReq misses
system.cpu.dcache.SoftPFReq_misses::total         2937                       # number of SoftPFReq misses
system.cpu.dcache.demand_misses::cpu.data        32369                       # number of demand (read+write) misses
system.cpu.dcache.demand_misses::total          32369                       # number of demand (read+write) misses
system.cpu.dcache.overall_misses::cpu.data        35306                       # number of overall misses
system.cpu.dcache.overall_misses::total         35306                       # number of overall misses
system.cpu.dcache.ReadReq_miss_latency::cpu.data    295667000                       # number of ReadReq miss cycles
system.cpu.dcache.ReadReq_miss_latency::total    295667000                       # number of ReadReq miss cycles
system.cpu.dcache.WriteReq_miss_latency::cpu.data    154498479                       # number of WriteReq miss cycles
system.cpu.dcache.WriteReq_miss_latency::total    154498479                       # number of WriteReq miss cycles
system.cpu.dcache.demand_miss_latency::cpu.data    450165479                       # number of demand (read+write) miss cycles
system.cpu.dcache.demand_miss_latency::total    450165479                       # number of demand (read+write) miss cycles
system.cpu.dcache.overall_miss_latency::cpu.data    450165479                       # number of overall miss cycles
system.cpu.dcache.overall_miss_latency::total    450165479                       # number of overall miss cycles
system.cpu.dcache.ReadReq_accesses::cpu.data       313069                       # number of ReadReq accesses(hits+misses)
[...]
system.l2cache.demand_mshr_misses::total         1511                       # number of demand (read+write) MSHR misses
system.l2cache.overall_mshr_misses::cpu.inst          536                       # number of overall MSHR misses
system.l2cache.overall_mshr_misses::cpu.data          975                       # number of overall MSHR misses
system.l2cache.overall_mshr_misses::total         1511                       # number of overall MSHR misses
system.l2cache.ReadReq_mshr_uncacheable::cpu.data          353                       # number of ReadReq MSHR uncacheable
system.l2cache.ReadReq_mshr_uncacheable::total          353                       # number of ReadReq MSHR uncacheable
system.l2cache.WriteReq_mshr_uncacheable::cpu.data          131                       # number of WriteReq MSHR uncacheable
system.l2cache.WriteReq_mshr_uncacheable::total          131                       # number of WriteReq MSHR uncacheable
system.l2cache.overall_mshr_uncacheable_misses::cpu.data          484                       # number of overall MSHR uncacheable misses
system.l2cache.overall_mshr_uncacheable_misses::total          484                       # number of overall MSHR uncacheable misses
system.l2cache.UpgradeReq_mshr_miss_latency::cpu.data     12417999                       # number of UpgradeReq MSHR miss cycles
system.l2cache.UpgradeReq_mshr_miss_latency::total     12417999                       # number of UpgradeReq MSHR miss cycles
system.l2cache.ReadExReq_mshr_miss_latency::cpu.data     41009500                       # number of ReadExReq MSHR miss cycles
system.l2cache.ReadExReq_mshr_miss_latency::total     41009500                       # number of ReadExReq MSHR miss cycles
system.l2cache.ReadSharedReq_mshr_miss_latency::cpu.inst     41972000                       # number of ReadSharedReq MSHR miss cycles
system.l2cache.ReadSharedReq_mshr_miss_latency::cpu.data     27355500                       # number of ReadSharedReq MSHR miss cycles
system.l2cache.ReadSharedReq_mshr_miss_latency::total     69327500                       # number of ReadSharedReq MSHR miss cycles
system.l2cache.demand_mshr_miss_latency::cpu.inst     41972000                       # number of demand (read+write) MSHR miss cycles
system.l2cache.demand_mshr_miss_latency::cpu.data     68365000                       # number of demand (read+write) MSHR miss cycles
system.l2cache.demand_mshr_miss_latency::total    110337000                       # number of demand (read+write) MSHR miss cycles
system.l2cache.overall_mshr_miss_latency::cpu.inst     41972000                       # number of overall MSHR miss cycles
system.l2cache.overall_mshr_miss_latency::cpu.data     68365000                       # number of overall MSHR miss cycles
system.l2cache.overall_mshr_miss_latency::total    110337000                       # number of overall MSHR miss cycles
system.l2cache.ReadReq_mshr_uncacheable_latency::cpu.data     77130500                       # number of ReadReq MSHR uncacheable cycles
system.l2cache.ReadReq_mshr_uncacheable_latency::total     77130500                       # number of ReadReq MSHR uncacheable cycles
system.l2cache.overall_mshr_uncacheable_latency::cpu.data     77130500                       # number of overall MSHR uncacheable cycles
system.l2cache.overall_mshr_uncacheable_latency::total     77130500                       # number of overall MSHR uncacheable cycles
system.l2cache.UpgradeReq_mshr_miss_rate::cpu.data     0.955357                       # mshr miss rate for UpgradeReq accesses
system.l2cache.UpgradeReq_mshr_miss_rate::total     0.955357                       # mshr miss rate for UpgradeReq accesses
system.l2cache.ReadExReq_mshr_miss_rate::cpu.data     0.053918                       # mshr miss rate for ReadExReq accesses
system.l2cache.ReadExReq_mshr_miss_rate::total     0.053918                       # mshr miss rate for ReadExReq accesses
system.l2cache.ReadSharedReq_mshr_miss_rate::cpu.inst     0.016485                       # mshr miss rate for ReadSharedReq accesses
system.l2cache.ReadSharedReq_mshr_miss_rate::cpu.data     0.012571                       # mshr miss rate for ReadSharedReq accesses
system.l2cache.ReadSharedReq_mshr_miss_rate::total     0.014963                       # mshr miss rate for ReadSharedReq accesses
system.l2cache.demand_mshr_miss_rate::cpu.inst     0.016485                       # mshr miss rate for demand accesses
system.l2cache.demand_mshr_miss_rate::cpu.data     0.028725                       # mshr miss rate for demand accesses
system.l2cache.demand_mshr_miss_rate::total     0.022736                       # mshr miss rate for demand accesses
system.l2cache.overall_mshr_miss_rate::cpu.inst     0.016485                       # mshr miss rate for overall accesses
system.l2cache.overall_mshr_miss_rate::cpu.data     0.028725                       # mshr miss rate for overall accesses
system.l2cache.overall_mshr_miss_rate::total     0.022736                       # mshr miss rate for overall accesses
system.l2cache.UpgradeReq_avg_mshr_miss_latency::cpu.data 14507.008178                       # average UpgradeReq mshr miss latency
system.l2cache.UpgradeReq_avg_mshr_miss_latency::total 14507.008178                       # average UpgradeReq mshr miss latency
system.l2cache.ReadExReq_avg_mshr_miss_latency::cpu.data 57355.944056                       # average ReadExReq mshr miss latency
system.l2cache.ReadExReq_avg_mshr_miss_latency::total 57355.944056                       # average ReadExReq mshr miss latency
system.l2cache.ReadSharedReq_avg_mshr_miss_latency::cpu.inst 78305.970149                       # average ReadSharedReq mshr miss latency
system.l2cache.ReadSharedReq_avg_mshr_miss_latency::cpu.data 105213.461538                       # average ReadSharedReq mshr miss latency
system.l2cache.ReadSharedReq_avg_mshr_miss_latency::total 87094.849246                       # average ReadSharedReq mshr miss latency
system.l2cache.demand_avg_mshr_miss_latency::cpu.inst 78305.970149                       # average overall mshr miss latency
system.l2cache.demand_avg_mshr_miss_latency::cpu.data 70117.948718                       # average overall mshr miss latency
system.l2cache.demand_avg_mshr_miss_latency::total 73022.501655                       # average overall mshr miss latency
system.l2cache.overall_avg_mshr_miss_latency::cpu.inst 78305.970149                       # average overall mshr miss latency
system.l2cache.overall_avg_mshr_miss_latency::cpu.data 70117.948718                       # average overall mshr miss latency
system.l2cache.overall_avg_mshr_miss_latency::total 73022.501655                       # average overall mshr miss latency
system.l2cache.ReadReq_avg_mshr_uncacheable_latency::cpu.data       218500                       # average ReadReq mshr uncacheable latency
system.l2cache.ReadReq_avg_mshr_uncacheable_latency::total       218500                       # average ReadReq mshr uncacheable latency
system.l2cache.overall_avg_mshr_uncacheable_latency::cpu.data 159360.537190                       # average overall mshr uncacheable latency
system.l2cache.overall_avg_mshr_uncacheable_latency::total 159360.537190                       # average overall mshr uncacheable latency
system.membus.snoop_filter.tot_requests         37721                       # Total number of requests made to the snoop filter.
system.membus.snoop_filter.hit_single_requests        36350                       # Number of requests hitting in the snoop filter with a single holder of the requested data.
system.membus.snoop_filter.hit_multi_requests            0                       # Number of requests hitting in the snoop filter with multiple (>1) holders of the requested data.
system.membus.snoop_filter.tot_snoops               0                       # Total number of snoops made to the snoop filter.
system.membus.snoop_filter.hit_single_snoops            0                       # Number of snoops hitting in the snoop filter with a single holder of the requested data.
system.membus.snoop_filter.hit_multi_snoops            0                       # Number of snoops hitting in the snoop filter with multiple (>1) holders of the requested data.
system.membus.pwrStateResidencyTicks::UNDEFINED 4807728571000                       # Cumulative time (in ticks) in various power states
system.membus.trans_dist::ReadReq               37634                       # Transaction distribution
system.membus.trans_dist::ReadResp              38430                       # Transaction distribution
system.membus.trans_dist::WriteReq                131                       # Transaction distribution
system.membus.trans_dist::WriteResp               131                       # Transaction distribution
system.membus.trans_dist::WritebackDirty          638                       # Transaction distribution
system.membus.trans_dist::CleanEvict              631                       # Transaction distribution
system.membus.trans_dist::UpgradeReq              997                       # Transaction distribution
system.membus.trans_dist::ReadExReq               575                       # Transaction distribution
system.membus.trans_dist::ReadExResp              575                       # Transaction distribution
system.membus.trans_dist::ReadSharedReq           796                       # Transaction distribution
system.membus.trans_dist::MessageReq              119                       # Transaction distribution
system.membus.trans_dist::MessageResp             119                       # Transaction distribution
system.membus.pkt_count_system.apicbridge.master::system.cpu.interrupts.int_slave          238                       # Packet count per connected master and slave (bytes)
system.membus.pkt_count_system.apicbridge.master::total          238                       # Packet count per connected master and slave (bytes)
system.membus.pkt_count_system.l2cache.mem_side::system.bridge.slave          952                       # Packet count per connected master and slave (bytes)
system.membus.pkt_count_system.l2cache.mem_side::system.mem_cntrl.port         5008                       # Packet count per connected master and slave (bytes)
system.membus.pkt_count_system.l2cache.mem_side::system.cpu.interrupts.pio           16                       # Packet count per connected master and slave (bytes)
system.membus.pkt_count_system.l2cache.mem_side::total         5976                       # Packet count per connected master and slave (bytes)
system.membus.pkt_count_system.cpu.itb.walker.port::system.mem_cntrl.port         8463                       # Packet count per connected master and slave (bytes)
system.membus.pkt_count_system.cpu.itb.walker.port::total         8463                       # Packet count per connected master and slave (bytes)
system.membus.pkt_count_system.cpu.dtb.walker.port::system.mem_cntrl.port        32063                       # Packet count per connected master and slave (bytes)
system.membus.pkt_count_system.cpu.dtb.walker.port::total        32063                       # Packet count per connected master and slave (bytes)
system.membus.pkt_count::total                  46740                       # Packet count per connected master and slave (bytes)
system.membus.pkt_size_system.apicbridge.master::system.cpu.interrupts.int_slave          476                       # Cumulative packet size per connected master and slave (bytes)
system.membus.pkt_size_system.apicbridge.master::total          476                       # Cumulative packet size per connected master and slave (bytes)
system.membus.pkt_size_system.l2cache.mem_side::system.bridge.slave          476                       # Cumulative packet size per connected master and slave (bytes)
system.membus.pkt_size_system.l2cache.mem_side::system.mem_cntrl.port       128576                       # Cumulative packet size per connected master and slave (bytes)
system.membus.pkt_size_system.l2cache.mem_side::system.cpu.interrupts.pio           32                       # Cumulative packet size per connected master and slave (bytes)
system.membus.pkt_size_system.l2cache.mem_side::total       129084                       # Cumulative packet size per connected master and slave (bytes)
system.membus.pkt_size_system.cpu.itb.walker.port::system.mem_cntrl.port          704                       # Cumulative packet size per connected master and slave (bytes)
system.membus.pkt_size_system.cpu.itb.walker.port::total          704                       # Cumulative packet size per connected master and slave (bytes)
system.membus.pkt_size_system.cpu.dtb.walker.port::system.mem_cntrl.port        25256                       # Cumulative packet size per connected master and slave (bytes)
system.membus.pkt_size_system.cpu.dtb.walker.port::total        25256                       # Cumulative packet size per connected master and slave (bytes)
system.membus.pkt_size::total                  155520                       # Cumulative packet size per connected master and slave (bytes)
system.membus.snoops                            34037                       # Total snoops (count)
system.membus.snoopTraffic                     272288                       # Total snoop traffic (bytes)
system.membus.snoop_fanout::samples             40252                       # Request fanout histogram
system.membus.snoop_fanout::mean             0.846765                       # Request fanout histogram
system.membus.snoop_fanout::stdev            0.360218                       # Request fanout histogram
system.membus.snoop_fanout::underflows              0      0.00%      0.00% # Request fanout histogram
system.membus.snoop_fanout::0                    6168     15.32%     15.32% # Request fanout histogram
system.membus.snoop_fanout::1                   34084     84.68%    100.00% # Request fanout histogram
system.membus.snoop_fanout::2                       0      0.00%    100.00% # Request fanout histogram
system.membus.snoop_fanout::overflows               0      0.00%    100.00% # Request fanout histogram
system.membus.snoop_fanout::min_value               0                       # Request fanout histogram
system.membus.snoop_fanout::max_value               1                       # Request fanout histogram
system.membus.snoop_fanout::total               40252                       # Request fanout histogram
system.membus.reqLayer0.occupancy              299500                       # Layer occupancy (ticks)
system.membus.reqLayer0.utilization               0.0                       # Layer utilization (%)
system.membus.reqLayer1.occupancy            21734999                       # Layer occupancy (ticks)
system.membus.reqLayer1.utilization               1.2                       # Layer utilization (%)
system.membus.reqLayer2.occupancy                8000                       # Layer occupancy (ticks)
system.membus.reqLayer2.utilization               0.0                       # Layer utilization (%)
system.membus.reqLayer3.occupancy              119000                       # Layer occupancy (ticks)
system.membus.reqLayer3.utilization               0.0                       # Layer utilization (%)
system.membus.respLayer1.occupancy              59500                       # Layer occupancy (ticks)
system.membus.respLayer1.utilization              0.0                       # Layer utilization (%)
system.membus.respLayer3.occupancy            4094249                       # Layer occupancy (ticks)
system.membus.respLayer3.utilization              0.2                       # Layer utilization (%)
system.membus.respLayer4.occupancy            8491293                       # Layer occupancy (ticks)
system.membus.respLayer4.utilization              0.5                       # Layer utilization (%)
system.membus.respLayer5.occupancy           29603402                       # Layer occupancy (ticks)
system.membus.respLayer5.utilization              1.6                       # Layer utilization (%)
system.membus.badaddr_responder.pwrStateResidencyTicks::UNDEFINED 4807728571000                       # Cumulative time (in ticks) in various power states
system.pc.behind_pci.pwrStateResidencyTicks::UNDEFINED 4807728571000                       # Cumulative time (in ticks) in various power states
system.pc.com_1.pwrStateResidencyTicks::UNDEFINED 4807728571000                       # Cumulative time (in ticks) in various power states
system.pc.fake_com_2.pwrStateResidencyTicks::UNDEFINED 4807728571000                       # Cumulative time (in ticks) in various power states
system.pc.fake_com_3.pwrStateResidencyTicks::UNDEFINED 4807728571000                       # Cumulative time (in ticks) in various power states
system.pc.fake_com_4.pwrStateResidencyTicks::UNDEFINED 4807728571000                       # Cumulative time (in ticks) in various power states
system.pc.fake_floppy.pwrStateResidencyTicks::UNDEFINED 4807728571000                       # Cumulative time (in ticks) in various power states
system.pc.i_dont_exist1.pwrStateResidencyTicks::UNDEFINED 4807728571000                       # Cumulative time (in ticks) in various power states
system.pc.i_dont_exist2.pwrStateResidencyTicks::UNDEFINED 4807728571000                       # Cumulative time (in ticks) in various power states
system.pc.pci_host.pwrStateResidencyTicks::UNDEFINED 4807728571000                       # Cumulative time (in ticks) in various power states
system.pc.south_bridge.cmos.pwrStateResidencyTicks::UNDEFINED 4807728571000                       # Cumulative time (in ticks) in various power states
system.pc.south_bridge.dma1.pwrStateResidencyTicks::UNDEFINED 4807728571000                       # Cumulative time (in ticks) in various power states
system.pc.south_bridge.pic2.pwrStateResidencyTicks::UNDEFINED 4807728571000                       # Cumulative time (in ticks) in various power states
system.pc.south_bridge.pic1.pwrStateResidencyTicks::UNDEFINED 4807728571000                       # Cumulative time (in ticks) in various power states
system.pc.south_bridge.io_apic.pwrStateResidencyTicks::UNDEFINED 4807728571000                       # Cumulative time (in ticks) in various power states
system.pc.south_bridge.keyboard.pwrStateResidencyTicks::UNDEFINED 4807728571000                       # Cumulative time (in ticks) in various power states
system.pc.south_bridge.pit.pwrStateResidencyTicks::UNDEFINED 4807728571000                       # Cumulative time (in ticks) in various power states
system.pc.south_bridge.speaker.pwrStateResidencyTicks::UNDEFINED 4807728571000                       # Cumulative time (in ticks) in various power states
system.pc.south_bridge.ide.disks.dma_read_full_pages            0                       # Number of full page size DMA reads (not PRD).
system.pc.south_bridge.ide.disks.dma_read_bytes            0                       # Number of bytes transfered via DMA reads (not PRD).
system.pc.south_bridge.ide.disks.dma_read_txs            0                       # Number of DMA read transactions (not PRD).
system.pc.south_bridge.ide.disks.dma_write_full_pages            0                       # Number of full page size DMA writes.
system.pc.south_bridge.ide.disks.dma_write_bytes            0                       # Number of bytes transfered via DMA writes.
system.pc.south_bridge.ide.disks.dma_write_txs            0                       # Number of DMA write transactions.
system.pc.south_bridge.ide.pwrStateResidencyTicks::UNDEFINED 4807728571000                       # Cumulative time (in ticks) in various power states
system.cpu.kern.inst.arm                            0                       # number of arm instructions executed
system.cpu.kern.inst.quiesce                        0                       # number of quiesce instructions executed

---------- End Simulation Statistics   ----------
