
---------- Begin Simulation Statistics ----------
sim_seconds                                  0.001222                       # Number of seconds simulated
sim_ticks                                  1222214500                       # Number of ticks simulated
final_tick                               4811243028500                       # Number of ticks from beginning of simulation (restored from checkpoints and never reset)
sim_freq                                 1000000000000                       # Frequency of simulated ticks
host_inst_rate                               44417749                       # Simulator instruction rate (inst/s)
host_op_rate                                104879257                       # Simulator op (including micro ops) rate (op/s)
host_tick_rate                               37621784                       # Simulator tick rate (ticks/s)
host_mem_usage                                1527416                       # Number of bytes of host memory used
host_seconds                                    32.49                       # Real time elapsed on the host
sim_insts                                  1442992278                       # Number of instructions simulated
sim_ops                                    3407198010                       # Number of ops (including micro ops) simulated
system.clk_domain.voltage_domain.voltage            1                       # Voltage in Volts
system.clk_domain.clock                           500                       # Clock period in ticks
system.mem_cntrl.pwrStateResidencyTicks::UNDEFINED 4811243028500                       # Cumulative time (in ticks) in various power states
system.mem_cntrl.bytes_read::cpu.dtb.walker        15488                       # Number of bytes read from this memory
system.mem_cntrl.bytes_read::cpu.itb.walker          304                       # Number of bytes read from this memory
system.mem_cntrl.bytes_read::cpu.inst           30784                       # Number of bytes read from this memory
system.mem_cntrl.bytes_read::cpu.data           45376                       # Number of bytes read from this memory
system.mem_cntrl.bytes_read::total              91952                       # Number of bytes read from this memory
system.mem_cntrl.bytes_inst_read::cpu.inst        30784                       # Number of instructions bytes read from this memory
system.mem_cntrl.bytes_inst_read::total         30784                       # Number of instructions bytes read from this memory
system.mem_cntrl.bytes_written::writebacks        31168                       # Number of bytes written to this memory
system.mem_cntrl.bytes_written::total           31168                       # Number of bytes written to this memory
system.mem_cntrl.num_reads::cpu.dtb.walker         1936                       # Number of read requests responded to by this memory
system.mem_cntrl.num_reads::cpu.itb.walker           38                       # Number of read requests responded to by this memory
system.mem_cntrl.num_reads::cpu.inst              481                       # Number of read requests responded to by this memory
system.mem_cntrl.num_reads::cpu.data              709                       # Number of read requests responded to by this memory
system.mem_cntrl.num_reads::total                3164                       # Number of read requests responded to by this memory
system.mem_cntrl.num_writes::writebacks           487                       # Number of write requests responded to by this memory
system.mem_cntrl.num_writes::total                487                       # Number of write requests responded to by this memory
system.mem_cntrl.bw_read::cpu.dtb.walker     12672080                       # Total read bandwidth from this memory (bytes/s)
system.mem_cntrl.bw_read::cpu.itb.walker       248729                       # Total read bandwidth from this memory (bytes/s)
system.mem_cntrl.bw_read::cpu.inst           25187068                       # Total read bandwidth from this memory (bytes/s)
system.mem_cntrl.bw_read::cpu.data           37126053                       # Total read bandwidth from this memory (bytes/s)
system.mem_cntrl.bw_read::total              75233930                       # Total read bandwidth from this memory (bytes/s)
system.mem_cntrl.bw_inst_read::cpu.inst      25187068                       # Instruction read bandwidth from this memory (bytes/s)
system.mem_cntrl.bw_inst_read::total         25187068                       # Instruction read bandwidth from this memory (bytes/s)
system.mem_cntrl.bw_write::writebacks        25501252                       # Write bandwidth from this memory (bytes/s)
system.mem_cntrl.bw_write::total             25501252                       # Write bandwidth from this memory (bytes/s)
system.mem_cntrl.bw_total::writebacks        25501252                       # Total bandwidth to/from this memory (bytes/s)
system.mem_cntrl.bw_total::cpu.dtb.walker     12672080                       # Total bandwidth to/from this memory (bytes/s)
system.mem_cntrl.bw_total::cpu.itb.walker       248729                       # Total bandwidth to/from this memory (bytes/s)
system.mem_cntrl.bw_total::cpu.inst          25187068                       # Total bandwidth to/from this memory (bytes/s)
system.mem_cntrl.bw_total::cpu.data          37126053                       # Total bandwidth to/from this memory (bytes/s)
system.mem_cntrl.bw_total::total            100735182                       # Total bandwidth to/from this memory (bytes/s)
system.mem_cntrl.readReqs                        3164                       # Number of read requests accepted
system.mem_cntrl.writeReqs                        487                       # Number of write requests accepted
system.mem_cntrl.readBursts                      3164                       # Number of DRAM read bursts, including those serviced by the write queue
system.mem_cntrl.writeBursts                      487                       # Number of DRAM write bursts, including those merged in the write queue
system.mem_cntrl.bytesReadDRAM                 202496                       # Total number of bytes read from DRAM
system.mem_cntrl.bytesReadWrQ                       0                       # Total number of bytes read from write queue
system.mem_cntrl.bytesWritten                   31360                       # Total number of bytes written to DRAM
system.mem_cntrl.bytesReadSys                   91952                       # Total read bytes from the system interface side
system.mem_cntrl.bytesWrittenSys                31168                       # Total written bytes from the system interface side
system.mem_cntrl.servicedByWrQ                      0                       # Number of DRAM read bursts serviced by the write queue
system.mem_cntrl.mergedWrBursts                     0                       # Number of DRAM write bursts merged with an existing one
system.mem_cntrl.neitherReadNorWriteReqs            0                       # Number of requests that are neither read nor write
system.mem_cntrl.perBankRdBursts::0                44                       # Per bank write bursts
system.mem_cntrl.perBankRdBursts::1                90                       # Per bank write bursts
system.mem_cntrl.perBankRdBursts::2                45                       # Per bank write bursts
system.mem_cntrl.perBankRdBursts::3                39                       # Per bank write bursts
system.mem_cntrl.perBankRdBursts::4               294                       # Per bank write bursts
system.mem_cntrl.perBankRdBursts::5               255                       # Per bank write bursts
system.mem_cntrl.perBankRdBursts::6               784                       # Per bank write bursts
system.mem_cntrl.perBankRdBursts::7               187                       # Per bank write bursts
system.mem_cntrl.perBankRdBursts::8               655                       # Per bank write bursts
system.mem_cntrl.perBankRdBursts::9               167                       # Per bank write bursts
system.mem_cntrl.perBankRdBursts::10              156                       # Per bank write bursts
system.mem_cntrl.perBankRdBursts::11               54                       # Per bank write bursts
system.mem_cntrl.perBankRdBursts::12               63                       # Per bank write bursts
system.mem_cntrl.perBankRdBursts::13               68                       # Per bank write bursts
system.mem_cntrl.perBankRdBursts::14              168                       # Per bank write bursts
system.mem_cntrl.perBankRdBursts::15               95                       # Per bank write bursts
system.mem_cntrl.perBankWrBursts::0                19                       # Per bank write bursts
system.mem_cntrl.perBankWrBursts::1                52                       # Per bank write bursts
system.mem_cntrl.perBankWrBursts::2                18                       # Per bank write bursts
system.mem_cntrl.perBankWrBursts::3                27                       # Per bank write bursts
system.mem_cntrl.perBankWrBursts::4                 7                       # Per bank write bursts
system.mem_cntrl.perBankWrBursts::5                13                       # Per bank write bursts
system.mem_cntrl.perBankWrBursts::6                31                       # Per bank write bursts
system.mem_cntrl.perBankWrBursts::7                16                       # Per bank write bursts
system.mem_cntrl.perBankWrBursts::8                50                       # Per bank write bursts
system.mem_cntrl.perBankWrBursts::9                84                       # Per bank write bursts
system.mem_cntrl.perBankWrBursts::10               55                       # Per bank write bursts
system.mem_cntrl.perBankWrBursts::11               12                       # Per bank write bursts
system.mem_cntrl.perBankWrBursts::12               28                       # Per bank write bursts
system.mem_cntrl.perBankWrBursts::13               17                       # Per bank write bursts
system.mem_cntrl.perBankWrBursts::14               34                       # Per bank write bursts
system.mem_cntrl.perBankWrBursts::15               27                       # Per bank write bursts
system.mem_cntrl.numRdRetry                         0                       # Number of times read queue was full causing retry
system.mem_cntrl.numWrRetry                         0                       # Number of times write queue was full causing retry
system.mem_cntrl.totGap                    1220476000                       # Total gap between requests
system.mem_cntrl.readPktSize::0                     0                       # Read request sizes (log2)
system.mem_cntrl.readPktSize::1                     0                       # Read request sizes (log2)
system.mem_cntrl.readPktSize::2                     0                       # Read request sizes (log2)
system.mem_cntrl.readPktSize::3                  1974                       # Read request sizes (log2)
system.mem_cntrl.readPktSize::4                     0                       # Read request sizes (log2)
system.mem_cntrl.readPktSize::5                     0                       # Read request sizes (log2)
system.mem_cntrl.readPktSize::6                  1190                       # Read request sizes (log2)
system.mem_cntrl.writePktSize::0                    0                       # Write request sizes (log2)
system.mem_cntrl.writePktSize::1                    0                       # Write request sizes (log2)
system.mem_cntrl.writePktSize::2                    0                       # Write request sizes (log2)
system.mem_cntrl.writePktSize::3                    0                       # Write request sizes (log2)
system.mem_cntrl.writePktSize::4                    0                       # Write request sizes (log2)
system.mem_cntrl.writePktSize::5                    0                       # Write request sizes (log2)
system.mem_cntrl.writePktSize::6                  487                       # Write request sizes (log2)
system.mem_cntrl.rdQLenPdf::0                    2916                       # What read queue length does an incoming req see
system.mem_cntrl.rdQLenPdf::1                     227                       # What read queue length does an incoming req see
system.mem_cntrl.rdQLenPdf::2                      20                       # What read queue length does an incoming req see
system.mem_cntrl.rdQLenPdf::3                       1                       # What read queue length does an incoming req see
system.mem_cntrl.rdQLenPdf::4                       0                       # What read queue length does an incoming req see
system.mem_cntrl.rdQLenPdf::5                       0                       # What read queue length does an incoming req see
system.mem_cntrl.rdQLenPdf::6                       0                       # What read queue length does an incoming req see
system.mem_cntrl.rdQLenPdf::7                       0                       # What read queue length does an incoming req see
system.mem_cntrl.rdQLenPdf::8                       0                       # What read queue length does an incoming req see
system.mem_cntrl.rdQLenPdf::9                       0                       # What read queue length does an incoming req see
system.mem_cntrl.rdQLenPdf::10                      0                       # What read queue length does an incoming req see
system.mem_cntrl.rdQLenPdf::11                      0                       # What read queue length does an incoming req see
system.mem_cntrl.rdQLenPdf::12                      0                       # What read queue length does an incoming req see
system.mem_cntrl.rdQLenPdf::13                      0                       # What read queue length does an incoming req see
system.mem_cntrl.rdQLenPdf::14                      0                       # What read queue length does an incoming req see
system.mem_cntrl.rdQLenPdf::15                      0                       # What read queue length does an incoming req see
system.mem_cntrl.rdQLenPdf::16                      0                       # What read queue length does an incoming req see
system.mem_cntrl.rdQLenPdf::17                      0                       # What read queue length does an incoming req see
system.mem_cntrl.rdQLenPdf::18                      0                       # What read queue length does an incoming req see
system.mem_cntrl.rdQLenPdf::19                      0                       # What read queue length does an incoming req see
system.mem_cntrl.rdQLenPdf::20                      0                       # What read queue length does an incoming req see
system.mem_cntrl.rdQLenPdf::21                      0                       # What read queue length does an incoming req see
system.mem_cntrl.rdQLenPdf::22                      0                       # What read queue length does an incoming req see
system.mem_cntrl.rdQLenPdf::23                      0                       # What read queue length does an incoming req see
system.mem_cntrl.rdQLenPdf::24                      0                       # What read queue length does an incoming req see
system.mem_cntrl.rdQLenPdf::25                      0                       # What read queue length does an incoming req see
system.mem_cntrl.rdQLenPdf::26                      0                       # What read queue length does an incoming req see
system.mem_cntrl.rdQLenPdf::27                      0                       # What read queue length does an incoming req see
system.mem_cntrl.rdQLenPdf::28                      0                       # What read queue length does an incoming req see
system.mem_cntrl.rdQLenPdf::29                      0                       # What read queue length does an incoming req see
system.mem_cntrl.rdQLenPdf::30                      0                       # What read queue length does an incoming req see
system.mem_cntrl.rdQLenPdf::31                      0                       # What read queue length does an incoming req see
system.mem_cntrl.wrQLenPdf::0                       0                       # What write queue length does an incoming req see
system.mem_cntrl.wrQLenPdf::1                       0                       # What write queue length does an incoming req see
system.mem_cntrl.wrQLenPdf::2                       0                       # What write queue length does an incoming req see
system.mem_cntrl.wrQLenPdf::3                       0                       # What write queue length does an incoming req see
system.mem_cntrl.wrQLenPdf::4                       0                       # What write queue length does an incoming req see
system.mem_cntrl.wrQLenPdf::5                       0                       # What write queue length does an incoming req see
system.mem_cntrl.wrQLenPdf::6                       0                       # What write queue length does an incoming req see
system.mem_cntrl.wrQLenPdf::7                       0                       # What write queue length does an incoming req see
system.mem_cntrl.wrQLenPdf::8                       0                       # What write queue length does an incoming req see
system.mem_cntrl.wrQLenPdf::9                       0                       # What write queue length does an incoming req see
system.mem_cntrl.wrQLenPdf::10                      0                       # What write queue length does an incoming req see
system.mem_cntrl.wrQLenPdf::11                      0                       # What write queue length does an incoming req see
system.mem_cntrl.wrQLenPdf::12                      0                       # What write queue length does an incoming req see
system.mem_cntrl.wrQLenPdf::13                      0                       # What write queue length does an incoming req see
system.mem_cntrl.wrQLenPdf::14                      0                       # What write queue length does an incoming req see
system.mem_cntrl.wrQLenPdf::15                      4                       # What write queue length does an incoming req see
system.mem_cntrl.wrQLenPdf::16                      4                       # What write queue length does an incoming req see
system.mem_cntrl.wrQLenPdf::17                     27                       # What write queue length does an incoming req see
system.mem_cntrl.wrQLenPdf::18                     30                       # What write queue length does an incoming req see
system.mem_cntrl.wrQLenPdf::19                     30                       # What write queue length does an incoming req see
system.mem_cntrl.wrQLenPdf::20                     30                       # What write queue length does an incoming req see
system.mem_cntrl.wrQLenPdf::21                     30                       # What write queue length does an incoming req see
system.mem_cntrl.wrQLenPdf::22                     30                       # What write queue length does an incoming req see
system.mem_cntrl.wrQLenPdf::23                     30                       # What write queue length does an incoming req see
system.mem_cntrl.wrQLenPdf::24                     30                       # What write queue length does an incoming req see
system.mem_cntrl.wrQLenPdf::25                     30                       # What write queue length does an incoming req see
system.mem_cntrl.wrQLenPdf::26                     30                       # What write queue length does an incoming req see
system.mem_cntrl.wrQLenPdf::27                     30                       # What write queue length does an incoming req see
system.mem_cntrl.wrQLenPdf::28                     30                       # What write queue length does an incoming req see
system.mem_cntrl.wrQLenPdf::29                     30                       # What write queue length does an incoming req see
system.mem_cntrl.wrQLenPdf::30                     32                       # What write queue length does an incoming req see
system.mem_cntrl.wrQLenPdf::31                     30                       # What write queue length does an incoming req see
system.mem_cntrl.wrQLenPdf::32                     30                       # What write queue length does an incoming req see
system.mem_cntrl.wrQLenPdf::33                      0                       # What write queue length does an incoming req see
system.mem_cntrl.wrQLenPdf::34                      0                       # What write queue length does an incoming req see
system.mem_cntrl.wrQLenPdf::35                      0                       # What write queue length does an incoming req see
system.mem_cntrl.wrQLenPdf::36                      0                       # What write queue length does an incoming req see
system.mem_cntrl.wrQLenPdf::37                      0                       # What write queue length does an incoming req see
system.mem_cntrl.wrQLenPdf::38                      0                       # What write queue length does an incoming req see
system.mem_cntrl.wrQLenPdf::39                      0                       # What write queue length does an incoming req see
system.mem_cntrl.wrQLenPdf::40                      0                       # What write queue length does an incoming req see
system.mem_cntrl.wrQLenPdf::41                      0                       # What write queue length does an incoming req see
system.mem_cntrl.wrQLenPdf::42                      0                       # What write queue length does an incoming req see
system.mem_cntrl.wrQLenPdf::43                      0                       # What write queue length does an incoming req see
system.mem_cntrl.wrQLenPdf::44                      0                       # What write queue length does an incoming req see
system.mem_cntrl.wrQLenPdf::45                      0                       # What write queue length does an incoming req see
system.mem_cntrl.wrQLenPdf::46                      0                       # What write queue length does an incoming req see
system.mem_cntrl.wrQLenPdf::47                      0                       # What write queue length does an incoming req see
system.mem_cntrl.wrQLenPdf::48                      0                       # What write queue length does an incoming req see
system.mem_cntrl.wrQLenPdf::49                      0                       # What write queue length does an incoming req see
system.mem_cntrl.wrQLenPdf::50                      0                       # What write queue length does an incoming req see
system.mem_cntrl.wrQLenPdf::51                      0                       # What write queue length does an incoming req see
system.mem_cntrl.wrQLenPdf::52                      0                       # What write queue length does an incoming req see
system.mem_cntrl.wrQLenPdf::53                      0                       # What write queue length does an incoming req see
system.mem_cntrl.wrQLenPdf::54                      0                       # What write queue length does an incoming req see
system.mem_cntrl.wrQLenPdf::55                      0                       # What write queue length does an incoming req see
system.mem_cntrl.wrQLenPdf::56                      0                       # What write queue length does an incoming req see
system.mem_cntrl.wrQLenPdf::57                      0                       # What write queue length does an incoming req see
system.mem_cntrl.wrQLenPdf::58                      0                       # What write queue length does an incoming req see
system.mem_cntrl.wrQLenPdf::59                      0                       # What write queue length does an incoming req see
system.mem_cntrl.wrQLenPdf::60                      0                       # What write queue length does an incoming req see
system.mem_cntrl.wrQLenPdf::61                      0                       # What write queue length does an incoming req see
system.mem_cntrl.wrQLenPdf::62                      0                       # What write queue length does an incoming req see
system.mem_cntrl.wrQLenPdf::63                      0                       # What write queue length does an incoming req see
system.mem_cntrl.bytesPerActivate::samples         1110                       # Bytes accessed per row activation
system.mem_cntrl.bytesPerActivate::mean    211.372973                       # Bytes accessed per row activation
system.mem_cntrl.bytesPerActivate::gmean   132.326880                       # Bytes accessed per row activation
system.mem_cntrl.bytesPerActivate::stdev   254.192297                       # Bytes accessed per row activation
system.mem_cntrl.bytesPerActivate::0-127          546     49.19%     49.19% # Bytes accessed per row activation
system.mem_cntrl.bytesPerActivate::128-255          280     25.23%     74.41% # Bytes accessed per row activation
system.mem_cntrl.bytesPerActivate::256-383          109      9.82%     84.23% # Bytes accessed per row activation
system.mem_cntrl.bytesPerActivate::384-511           49      4.41%     88.65% # Bytes accessed per row activation
system.mem_cntrl.bytesPerActivate::512-639           22      1.98%     90.63% # Bytes accessed per row activation
system.mem_cntrl.bytesPerActivate::640-767           15      1.35%     91.98% # Bytes accessed per row activation
system.mem_cntrl.bytesPerActivate::768-895           21      1.89%     93.87% # Bytes accessed per row activation
system.mem_cntrl.bytesPerActivate::896-1023           12      1.08%     94.95% # Bytes accessed per row activation
system.mem_cntrl.bytesPerActivate::1024-1151           56      5.05%    100.00% # Bytes accessed per row activation
system.mem_cntrl.bytesPerActivate::total         1110                       # Bytes accessed per row activation
system.mem_cntrl.rdPerTurnAround::samples           30                       # Reads before turning the bus around for writes
system.mem_cntrl.rdPerTurnAround::mean     104.833333                       # Reads before turning the bus around for writes
system.mem_cntrl.rdPerTurnAround::gmean     73.391975                       # Reads before turning the bus around for writes
system.mem_cntrl.rdPerTurnAround::stdev    100.031403                       # Reads before turning the bus around for writes
system.mem_cntrl.rdPerTurnAround::16-31             4     13.33%     13.33% # Reads before turning the bus around for writes
system.mem_cntrl.rdPerTurnAround::32-47             7     23.33%     36.67% # Reads before turning the bus around for writes
system.mem_cntrl.rdPerTurnAround::48-63             5     16.67%     53.33% # Reads before turning the bus around for writes
system.mem_cntrl.rdPerTurnAround::64-79             3     10.00%     63.33% # Reads before turning the bus around for writes
system.mem_cntrl.rdPerTurnAround::96-111            2      6.67%     70.00% # Reads before turning the bus around for writes
system.mem_cntrl.rdPerTurnAround::128-143            1      3.33%     73.33% # Reads before turning the bus around for writes
system.mem_cntrl.rdPerTurnAround::144-159            1      3.33%     76.67% # Reads before turning the bus around for writes
system.mem_cntrl.rdPerTurnAround::176-191            2      6.67%     83.33% # Reads before turning the bus around for writes
system.mem_cntrl.rdPerTurnAround::192-207            1      3.33%     86.67% # Reads before turning the bus around for writes
system.mem_cntrl.rdPerTurnAround::208-223            1      3.33%     90.00% # Reads before turning the bus around for writes
system.mem_cntrl.rdPerTurnAround::224-239            1      3.33%     93.33% # Reads before turning the bus around for writes
system.mem_cntrl.rdPerTurnAround::320-335            1      3.33%     96.67% # Reads before turning the bus around for writes
system.mem_cntrl.rdPerTurnAround::432-447            1      3.33%    100.00% # Reads before turning the bus around for writes
system.mem_cntrl.rdPerTurnAround::total            30                       # Reads before turning the bus around for writes
system.mem_cntrl.wrPerTurnAround::samples           30                       # Writes before turning the bus around for reads
system.mem_cntrl.wrPerTurnAround::mean      16.333333                       # Writes before turning the bus around for reads
system.mem_cntrl.wrPerTurnAround::gmean     16.317191                       # Writes before turning the bus around for reads
system.mem_cntrl.wrPerTurnAround::stdev      0.758098                       # Writes before turning the bus around for reads
system.mem_cntrl.wrPerTurnAround::16               25     83.33%     83.33% # Writes before turning the bus around for reads
system.mem_cntrl.wrPerTurnAround::18                5     16.67%    100.00% # Writes before turning the bus around for reads
system.mem_cntrl.wrPerTurnAround::total            30                       # Writes before turning the bus around for reads
system.mem_cntrl.totQLat                     67327500                       # Total ticks spent queuing
system.mem_cntrl.totMemAccLat               126652500                       # Total ticks spent from burst creation until serviced by the DRAM
system.mem_cntrl.totBusLat                   15820000                       # Total ticks spent in databus transfers
system.mem_cntrl.avgQLat                     21279.24                       # Average queueing delay per DRAM burst
system.mem_cntrl.avgBusLat                    5000.00                       # Average bus latency per DRAM burst
system.mem_cntrl.avgMemAccLat                40029.24                       # Average memory access latency per DRAM burst
system.mem_cntrl.avgRdBW                       165.68                       # Average DRAM read bandwidth in MiByte/s
system.mem_cntrl.avgWrBW                        25.66                       # Average achieved write bandwidth in MiByte/s
system.mem_cntrl.avgRdBWSys                     75.23                       # Average system read bandwidth in MiByte/s
system.mem_cntrl.avgWrBWSys                     25.50                       # Average system write bandwidth in MiByte/s
system.mem_cntrl.peakBW                      12800.00                       # Theoretical peak bandwidth in MiByte/s
system.mem_cntrl.busUtil                         1.49                       # Data bus utilization in percentage
system.mem_cntrl.busUtilRead                     1.29                       # Data bus utilization in percentage for reads
system.mem_cntrl.busUtilWrite                    0.20                       # Data bus utilization in percentage for writes
system.mem_cntrl.avgRdQLen                       1.16                       # Average read queue length when enqueuing
system.mem_cntrl.avgWrQLen                      25.90                       # Average write queue length when enqueuing
system.mem_cntrl.readRowHits                     2317                       # Number of row buffer hits during reads
system.mem_cntrl.writeRowHits                     232                       # Number of row buffer hits during writes
system.mem_cntrl.readRowHitRate                 73.23                       # Row buffer hit rate for reads
system.mem_cntrl.writeRowHitRate                47.64                       # Row buffer hit rate for writes
system.mem_cntrl.avgGap                     334285.40                       # Average gap between requests
system.mem_cntrl.pageHitRate                    69.82                       # Row buffer hit rate, read and write combined
system.mem_cntrl_0.actEnergy                  4555320                       # Energy for activate commands per rank (pJ)
system.mem_cntrl_0.preEnergy                  2421210                       # Energy for precharge commands per rank (pJ)
system.mem_cntrl_0.readEnergy                12473580                       # Energy for read commands per rank (pJ)
system.mem_cntrl_0.writeEnergy                 955260                       # Energy for write commands per rank (pJ)
system.mem_cntrl_0.refreshEnergy         92810640.000000                       # Energy for refresh commands per rank (pJ)
system.mem_cntrl_0.actBackEnergy             51307980                       # Energy for active background per rank (pJ)
system.mem_cntrl_0.preBackEnergy              2942400                       # Energy for precharge background per rank (pJ)
system.mem_cntrl_0.actPowerDownEnergy       325798890                       # Energy for active power-down per rank (pJ)
system.mem_cntrl_0.prePowerDownEnergy       100323840                       # Energy for precharge power-down per rank (pJ)
system.mem_cntrl_0.selfRefreshEnergy         37716240                       # Energy for self refresh per rank (pJ)
system.mem_cntrl_0.totalEnergy              631318050                       # Total energy per rank (pJ)
system.mem_cntrl_0.averagePower            516.536214                       # Core power per rank (mW)
system.mem_cntrl_0.totalIdleTime           1103656250                       # Total Idle time Per DRAM Rank
system.mem_cntrl_0.memoryStateTime::IDLE      3678000                       # Time in different power states
system.mem_cntrl_0.memoryStateTime::REF      39078000                       # Time in different power states
system.mem_cntrl_0.memoryStateTime::SREF    131807750                       # Time in different power states
system.mem_cntrl_0.memoryStateTime::PRE_PDN    261260750                       # Time in different power states
system.mem_cntrl_0.memoryStateTime::ACT      76952000                       # Time in different power states
system.mem_cntrl_0.memoryStateTime::ACT_PDN    710587750                       # Time in different power states
system.mem_cntrl_1.actEnergy                  3370080                       # Energy for activate commands per rank (pJ)
system.mem_cntrl_1.preEnergy                  1791240                       # Energy for precharge commands per rank (pJ)
system.mem_cntrl_1.readEnergy                10203060                       # Energy for read commands per rank (pJ)
system.mem_cntrl_1.writeEnergy                1602540                       # Energy for write commands per rank (pJ)
system.mem_cntrl_1.refreshEnergy         86664240.000000                       # Energy for refresh commands per rank (pJ)
system.mem_cntrl_1.actBackEnergy             41590620                       # Energy for active background per rank (pJ)
system.mem_cntrl_1.preBackEnergy              3542880                       # Energy for precharge background per rank (pJ)
system.mem_cntrl_1.actPowerDownEnergy       274392300                       # Energy for active power-down per rank (pJ)
system.mem_cntrl_1.prePowerDownEnergy        99392640                       # Energy for precharge power-down per rank (pJ)
system.mem_cntrl_1.selfRefreshEnergy         73479960                       # Energy for self refresh per rank (pJ)
system.mem_cntrl_1.totalEnergy              596173500                       # Total energy per rank (pJ)
system.mem_cntrl_1.averagePower            487.781400                       # Core power per rank (mW)
system.mem_cntrl_1.totalIdleTime           1120619250                       # Total Idle time Per DRAM Rank
system.mem_cntrl_1.memoryStateTime::IDLE      5670000                       # Time in different power states
system.mem_cntrl_1.memoryStateTime::REF      36780000                       # Time in different power states
system.mem_cntrl_1.memoryStateTime::SREF    262124000                       # Time in different power states
system.mem_cntrl_1.memoryStateTime::PRE_PDN    258829500                       # Time in different power states
system.mem_cntrl_1.memoryStateTime::ACT      58157000                       # Time in different power states
system.mem_cntrl_1.memoryStateTime::ACT_PDN    600889250                       # Time in different power states
system.pwrStateResidencyTicks::UNDEFINED 4811243028500                       # Cumulative time (in ticks) in various power states
system.apicbridge.pwrStateResidencyTicks::UNDEFINED 4811243028500                       # Cumulative time (in ticks) in various power states
system.bridge.pwrStateResidencyTicks::UNDEFINED 4811243028500                       # Cumulative time (in ticks) in various power states
system.cpu.branchPred.lookups                  441542                       # Number of BP lookups
system.cpu.branchPred.condPredicted            441542                       # Number of conditional branches predicted
system.cpu.branchPred.condIncorrect             47898                       # Number of conditional branches incorrect
system.cpu.branchPred.BTBLookups               379705                       # Number of BTB lookups
system.cpu.branchPred.BTBHits                       0                       # Number of BTB hits
system.cpu.branchPred.BTBCorrect                    0                       # Number of correct BTB predictions (this stat may not work properly.
system.cpu.branchPred.BTBHitPct              0.000000                       # BTB Hit Percentage
system.cpu.branchPred.usedRAS                   42245                       # Number of times the RAS was used to get a target.
system.cpu.branchPred.RASInCorrect               9039                       # Number of incorrect RAS predictions.
system.cpu.branchPred.correctpredictionPercent    89.152108                       # Correct prediction percentage
system.cpu.branchPred.indirectLookups          379705                       # Number of indirect predictor lookups.
system.cpu.branchPred.indirectHits             140229                       # Number of indirect target hits.
system.cpu.branchPred.indirectMisses           239476                       # Number of indirect misses.
system.cpu.branchPredindirectMispredicted        31258                       # Number of mispredicted indirect branches.
system.cpu.dtb.walker.pwrStateResidencyTicks::UNDEFINED 4811243028500                       # Cumulative time (in ticks) in various power states
system.cpu.dtb.rdAccesses                      359561                       # TLB accesses on read requests
system.cpu.dtb.wrAccesses                      227628                       # TLB accesses on write requests
system.cpu.dtb.rdMisses                          9227                       # TLB misses on read requests
system.cpu.dtb.wrMisses                          1844                       # TLB misses on write requests
system.cpu.apic_clk_domain.clock                 8000                       # Clock period in ticks
system.cpu.interrupts.pwrStateResidencyTicks::UNDEFINED 4811243028500                       # Cumulative time (in ticks) in various power states
system.cpu.itb.walker.pwrStateResidencyTicks::UNDEFINED 4811243028500                       # Cumulative time (in ticks) in various power states
system.cpu.itb.rdAccesses                           0                       # TLB accesses on read requests
system.cpu.itb.wrAccesses                      277327                       # TLB accesses on write requests
system.cpu.itb.rdMisses                             0                       # TLB misses on read requests
system.cpu.itb.wrMisses                          1289                       # TLB misses on write requests
system.cpu.pwrStateResidencyTicks::ON      2476287000                       # Cumulative time (in ticks) in various power states
system.cpu.numCycles                          2444429                       # number of cpu cycles simulated
system.cpu.numWorkItemsStarted                      0                       # number of work items this cpu started
system.cpu.numWorkItemsCompleted                    0                       # number of work items this cpu completed
system.cpu.fetch.icacheStallCycles             563759                       # Number of cycles fetch is stalled on an Icache miss
system.cpu.fetch.Insts                        1929613                       # Number of instructions fetch has processed
system.cpu.fetch.Branches                      441542                       # Number of branches that fetch encountered
system.cpu.fetch.predictedBranches             182474                       # Number of branches that fetch has predicted taken
system.cpu.fetch.Cycles                       1609192                       # Number of cycles fetch has run and was not squashing or blocked
system.cpu.fetch.SquashCycles                  105028                       # Number of cycles fetch has spent squashing
system.cpu.fetch.TlbCycles                      46860                       # Number of cycles fetch has spent waiting for tlb
system.cpu.fetch.MiscStallCycles                 1769                       # Number of cycles fetch has spent waiting on interrupts, or bad addresses, or out of MSHRs
system.cpu.fetch.PendingTrapStallCycles         37431                       # Number of stall cycles due to pending traps
system.cpu.fetch.PendingQuiesceStallCycles           15                       # Number of stall cycles due to pending quiesce instructions
system.cpu.fetch.IcacheWaitRetryStallCycles           14                       # Number of stall cycles due to full MSHR
system.cpu.fetch.CacheLines                    271581                       # Number of cache lines fetched
system.cpu.fetch.IcacheSquashes                 18662                       # Number of outstanding Icache misses that were squashed
system.cpu.fetch.ItlbSquashes                     619                       # Number of outstanding ITLB misses that were squashed
system.cpu.fetch.rateDist::samples            2311554                       # Number of instructions fetched each cycle (Total)
system.cpu.fetch.rateDist::mean              1.678809                       # Number of instructions fetched each cycle (Total)
system.cpu.fetch.rateDist::stdev             3.042290                       # Number of instructions fetched each cycle (Total)
system.cpu.fetch.rateDist::underflows               0      0.00%      0.00% # Number of instructions fetched each cycle (Total)
system.cpu.fetch.rateDist::0                  1681853     72.76%     72.76% # Number of instructions fetched each cycle (Total)
system.cpu.fetch.rateDist::1                    60453      2.62%     75.37% # Number of instructions fetched each cycle (Total)
system.cpu.fetch.rateDist::2                    30237      1.31%     76.68% # Number of instructions fetched each cycle (Total)
system.cpu.fetch.rateDist::3                    38979      1.69%     78.37% # Number of instructions fetched each cycle (Total)
system.cpu.fetch.rateDist::4                    38638      1.67%     80.04% # Number of instructions fetched each cycle (Total)
system.cpu.fetch.rateDist::5                    33894      1.47%     81.51% # Number of instructions fetched each cycle (Total)
system.cpu.fetch.rateDist::6                    35091      1.52%     83.02% # Number of instructions fetched each cycle (Total)
system.cpu.fetch.rateDist::7                    31046      1.34%     84.37% # Number of instructions fetched each cycle (Total)
system.cpu.fetch.rateDist::8                   361363     15.63%    100.00% # Number of instructions fetched each cycle (Total)
system.cpu.fetch.rateDist::overflows                0      0.00%    100.00% # Number of instructions fetched each cycle (Total)
system.cpu.fetch.rateDist::min_value                0                       # Number of instructions fetched each cycle (Total)
system.cpu.fetch.rateDist::max_value                8                       # Number of instructions fetched each cycle (Total)
system.cpu.fetch.rateDist::total              2311554                       # Number of instructions fetched each cycle (Total)
system.cpu.fetch.branchRate                  0.180632                       # Number of branch fetches per cycle
system.cpu.fetch.rate                        0.789392                       # Number of inst fetches per cycle
system.cpu.decode.IdleCycles                   535823                       # Number of cycles decode is idle
system.cpu.decode.BlockedCycles               1205809                       # Number of cycles decode is blocked
system.cpu.decode.RunCycles                    452439                       # Number of cycles decode is running
system.cpu.decode.UnblockCycles                 64969                       # Number of cycles decode is unblocking
system.cpu.decode.SquashCycles                  52514                       # Number of cycles decode is squashing
system.cpu.decode.DecodedInsts                3473441                       # Number of instructions handled by decode
system.cpu.rename.SquashCycles                  52514                       # Number of cycles rename is squashing
system.cpu.rename.IdleCycles                   577466                       # Number of cycles rename is idle
system.cpu.rename.BlockCycles                  540615                       # Number of cycles rename is blocking
system.cpu.rename.serializeStallCycles         362831                       # count of cycles rename stalled for serializing inst
system.cpu.rename.RunCycles                    470039                       # Number of cycles rename is running
system.cpu.rename.UnblockCycles                308089                       # Number of cycles rename is unblocking
system.cpu.rename.RenamedInsts                3270178                       # Number of instructions processed by rename
system.cpu.rename.ROBFullEvents                  3433                       # Number of times rename has blocked due to ROB full
system.cpu.rename.IQFullEvents                  27985                       # Number of times rename has blocked due to IQ full
system.cpu.rename.LQFullEvents                  23710                       # Number of times rename has blocked due to LQ full
system.cpu.rename.SQFullEvents                 235019                       # Number of times rename has blocked due to SQ full
system.cpu.rename.RenamedOperands             3608484                       # Number of destination operands rename has renamed
system.cpu.rename.RenameLookups               8257461                       # Number of register rename lookups that rename has made
system.cpu.rename.int_rename_lookups          5054544                       # Number of integer rename lookups
system.cpu.rename.fp_rename_lookups             12769                       # Number of floating rename lookups
system.cpu.rename.CommittedMaps               1991461                       # Number of HB maps that are committed
system.cpu.rename.UndoneMaps                  1617023                       # Number of HB maps that are undone due to squashing
system.cpu.rename.serializingInsts              13917                       # count of serializing insts renamed
system.cpu.rename.tempSerializingInsts          13941                       # count of temporary serializing insts renamed
system.cpu.rename.skidInsts                    288522                       # count of insts added to the skid buffer
system.cpu.memDep0.insertedLoads               434308                       # Number of loads inserted to the mem dependence unit.
system.cpu.memDep0.insertedStores              272317                       # Number of stores inserted to the mem dependence unit.
system.cpu.memDep0.conflictingLoads             29979                       # Number of conflicting loads.
system.cpu.memDep0.conflictingStores            30786                       # Number of conflicting stores.
system.cpu.iq.iqInstsAdded                    2922329                       # Number of instructions added to the IQ (excludes non-spec)
system.cpu.iq.iqNonSpecInstsAdded               16365                       # Number of non-speculative instructions added to the IQ
system.cpu.iq.iqInstsIssued                   2537878                       # Number of instructions issued
system.cpu.iq.iqSquashedInstsIssued             17986                       # Number of squashed instructions issued
system.cpu.iq.iqSquashedInstsExamined         1154779                       # Number of squashed instructions iterated over during squash; mainly for profiling
system.cpu.iq.iqSquashedOperandsExamined      1709661                       # Number of squashed operands that are examined and possibly removed from graph
system.cpu.iq.iqSquashedNonSpecRemoved           4578                       # Number of squashed non-spec instructions that were removed
system.cpu.iq.issued_per_cycle::samples       2311554                       # Number of insts issued each cycle
system.cpu.iq.issued_per_cycle::mean         1.097910                       # Number of insts issued each cycle
system.cpu.iq.issued_per_cycle::stdev        1.972458                       # Number of insts issued each cycle
system.cpu.iq.issued_per_cycle::underflows            0      0.00%      0.00% # Number of insts issued each cycle
system.cpu.iq.issued_per_cycle::0             1556856     67.35%     67.35% # Number of insts issued each cycle
system.cpu.iq.issued_per_cycle::1              194000      8.39%     75.74% # Number of insts issued each cycle
system.cpu.iq.issued_per_cycle::2              129955      5.62%     81.37% # Number of insts issued each cycle
system.cpu.iq.issued_per_cycle::3              106465      4.61%     85.97% # Number of insts issued each cycle
system.cpu.iq.issued_per_cycle::4               95433      4.13%     90.10% # Number of insts issued each cycle
system.cpu.iq.issued_per_cycle::5               83405      3.61%     93.71% # Number of insts issued each cycle
system.cpu.iq.issued_per_cycle::6               76503      3.31%     97.02% # Number of insts issued each cycle
system.cpu.iq.issued_per_cycle::7               44698      1.93%     98.95% # Number of insts issued each cycle
system.cpu.iq.issued_per_cycle::8               24239      1.05%    100.00% # Number of insts issued each cycle
system.cpu.iq.issued_per_cycle::overflows            0      0.00%    100.00% # Number of insts issued each cycle
system.cpu.iq.issued_per_cycle::min_value            0                       # Number of insts issued each cycle
system.cpu.iq.issued_per_cycle::max_value            8                       # Number of insts issued each cycle
system.cpu.iq.issued_per_cycle::total         2311554                       # Number of insts issued each cycle
system.cpu.iq.fu_full::No_OpClass                   0      0.00%      0.00% # attempts to use FU when none available
system.cpu.iq.fu_full::IntAlu                   23692     64.98%     64.98% # attempts to use FU when none available
system.cpu.iq.fu_full::IntMult                      0      0.00%     64.98% # attempts to use FU when none available
system.cpu.iq.fu_full::IntDiv                       0      0.00%     64.98% # attempts to use FU when none available
system.cpu.iq.fu_full::FloatAdd                    57      0.16%     65.14% # attempts to use FU when none available
system.cpu.iq.fu_full::FloatCmp                     0      0.00%     65.14% # attempts to use FU when none available
system.cpu.iq.fu_full::FloatCvt                     0      0.00%     65.14% # attempts to use FU when none available
system.cpu.iq.fu_full::FloatMult                    0      0.00%     65.14% # attempts to use FU when none available
system.cpu.iq.fu_full::FloatMultAcc                 0      0.00%     65.14% # attempts to use FU when none available
system.cpu.iq.fu_full::FloatDiv                     0      0.00%     65.14% # attempts to use FU when none available
system.cpu.iq.fu_full::FloatMisc                    0      0.00%     65.14% # attempts to use FU when none available
system.cpu.iq.fu_full::FloatSqrt                    0      0.00%     65.14% # attempts to use FU when none available
system.cpu.iq.fu_full::SimdAdd                      0      0.00%     65.14% # attempts to use FU when none available
system.cpu.iq.fu_full::SimdAddAcc                   0      0.00%     65.14% # attempts to use FU when none available
system.cpu.iq.fu_full::SimdAlu                      0      0.00%     65.14% # attempts to use FU when none available
system.cpu.iq.fu_full::SimdCmp                      0      0.00%     65.14% # attempts to use FU when none available
system.cpu.iq.fu_full::SimdCvt                      0      0.00%     65.14% # attempts to use FU when none available
system.cpu.iq.fu_full::SimdMisc                     0      0.00%     65.14% # attempts to use FU when none available
system.cpu.iq.fu_full::SimdMult                     0      0.00%     65.14% # attempts to use FU when none available
system.cpu.iq.fu_full::SimdMultAcc                  0      0.00%     65.14% # attempts to use FU when none available
system.cpu.iq.fu_full::SimdShift                    0      0.00%     65.14% # attempts to use FU when none available
system.cpu.iq.fu_full::SimdShiftAcc                 0      0.00%     65.14% # attempts to use FU when none available
system.cpu.iq.fu_full::SimdSqrt                     0      0.00%     65.14% # attempts to use FU when none available
system.cpu.iq.fu_full::SimdFloatAdd                 0      0.00%     65.14% # attempts to use FU when none available
system.cpu.iq.fu_full::SimdFloatAlu                 0      0.00%     65.14% # attempts to use FU when none available
system.cpu.iq.fu_full::SimdFloatCmp                 0      0.00%     65.14% # attempts to use FU when none available
system.cpu.iq.fu_full::SimdFloatCvt                 0      0.00%     65.14% # attempts to use FU when none available
system.cpu.iq.fu_full::SimdFloatDiv                 0      0.00%     65.14% # attempts to use FU when none available
system.cpu.iq.fu_full::SimdFloatMisc                0      0.00%     65.14% # attempts to use FU when none available
system.cpu.iq.fu_full::SimdFloatMult                0      0.00%     65.14% # attempts to use FU when none available
system.cpu.iq.fu_full::SimdFloatMultAcc             0      0.00%     65.14% # attempts to use FU when none available
system.cpu.iq.fu_full::SimdFloatSqrt                0      0.00%     65.14% # attempts to use FU when none available
system.cpu.iq.fu_full::MemRead                   8912     24.44%     89.58% # attempts to use FU when none available
system.cpu.iq.fu_full::MemWrite                  3748     10.28%     99.86% # attempts to use FU when none available
system.cpu.iq.fu_full::FloatMemRead                27      0.07%     99.94% # attempts to use FU when none available
system.cpu.iq.fu_full::FloatMemWrite               23      0.06%    100.00% # attempts to use FU when none available
system.cpu.iq.fu_full::IprAccess                    0      0.00%    100.00% # attempts to use FU when none available
system.cpu.iq.fu_full::InstPrefetch                 0      0.00%    100.00% # attempts to use FU when none available
system.cpu.iq.FU_type_0::No_OpClass             33505      1.32%      1.32% # Type of FU issued
system.cpu.iq.FU_type_0::IntAlu               1881160     74.12%     75.44% # Type of FU issued
system.cpu.iq.FU_type_0::IntMult                 1471      0.06%     75.50% # Type of FU issued
system.cpu.iq.FU_type_0::IntDiv                  1942      0.08%     75.58% # Type of FU issued
system.cpu.iq.FU_type_0::FloatAdd                3174      0.13%     75.70% # Type of FU issued
system.cpu.iq.FU_type_0::FloatCmp                   0      0.00%     75.70% # Type of FU issued
system.cpu.iq.FU_type_0::FloatCvt                   0      0.00%     75.70% # Type of FU issued
system.cpu.iq.FU_type_0::FloatMult                  0      0.00%     75.70% # Type of FU issued
system.cpu.iq.FU_type_0::FloatMultAcc               0      0.00%     75.70% # Type of FU issued
system.cpu.iq.FU_type_0::FloatDiv                   0      0.00%     75.70% # Type of FU issued
system.cpu.iq.FU_type_0::FloatMisc                  0      0.00%     75.70% # Type of FU issued
system.cpu.iq.FU_type_0::FloatSqrt                  0      0.00%     75.70% # Type of FU issued
system.cpu.iq.FU_type_0::SimdAdd                    0      0.00%     75.70% # Type of FU issued
system.cpu.iq.FU_type_0::SimdAddAcc                 0      0.00%     75.70% # Type of FU issued
system.cpu.iq.FU_type_0::SimdAlu                    0      0.00%     75.70% # Type of FU issued
system.cpu.iq.FU_type_0::SimdCmp                    0      0.00%     75.70% # Type of FU issued
system.cpu.iq.FU_type_0::SimdCvt                    0      0.00%     75.70% # Type of FU issued
system.cpu.iq.FU_type_0::SimdMisc                   0      0.00%     75.70% # Type of FU issued
system.cpu.iq.FU_type_0::SimdMult                   0      0.00%     75.70% # Type of FU issued
system.cpu.iq.FU_type_0::SimdMultAcc                0      0.00%     75.70% # Type of FU issued
system.cpu.iq.FU_type_0::SimdShift                  0      0.00%     75.70% # Type of FU issued
system.cpu.iq.FU_type_0::SimdShiftAcc               0      0.00%     75.70% # Type of FU issued
system.cpu.iq.FU_type_0::SimdSqrt                   0      0.00%     75.70% # Type of FU issued
system.cpu.iq.FU_type_0::SimdFloatAdd               0      0.00%     75.70% # Type of FU issued
system.cpu.iq.FU_type_0::SimdFloatAlu               0      0.00%     75.70% # Type of FU issued
system.cpu.iq.FU_type_0::SimdFloatCmp               0      0.00%     75.70% # Type of FU issued
system.cpu.iq.FU_type_0::SimdFloatCvt               0      0.00%     75.70% # Type of FU issued
system.cpu.iq.FU_type_0::SimdFloatDiv               0      0.00%     75.70% # Type of FU issued
system.cpu.iq.FU_type_0::SimdFloatMisc              0      0.00%     75.70% # Type of FU issued
system.cpu.iq.FU_type_0::SimdFloatMult              0      0.00%     75.70% # Type of FU issued
system.cpu.iq.FU_type_0::SimdFloatMultAcc            0      0.00%     75.70% # Type of FU issued
system.cpu.iq.FU_type_0::SimdFloatSqrt              0      0.00%     75.70% # Type of FU issued
system.cpu.iq.FU_type_0::MemRead               377207     14.86%     90.57% # Type of FU issued
system.cpu.iq.FU_type_0::MemWrite              237842      9.37%     99.94% # Type of FU issued
system.cpu.iq.FU_type_0::FloatMemRead            1469      0.06%    100.00% # Type of FU issued
system.cpu.iq.FU_type_0::FloatMemWrite            108      0.00%    100.00% # Type of FU issued
system.cpu.iq.FU_type_0::IprAccess                  0      0.00%    100.00% # Type of FU issued
system.cpu.iq.FU_type_0::InstPrefetch               0      0.00%    100.00% # Type of FU issued
system.cpu.iq.FU_type_0::total                2537878                       # Type of FU issued
system.cpu.iq.rate                           1.038229                       # Inst issue rate
system.cpu.iq.fu_busy_cnt                       36459                       # FU busy when requested
system.cpu.iq.fu_busy_rate                   0.014366                       # FU busy rate (busy events/executed inst)
system.cpu.iq.int_inst_queue_reads            7431591                       # Number of integer instruction queue reads
system.cpu.iq.int_inst_queue_writes           4082898                       # Number of integer instruction queue writes
system.cpu.iq.int_inst_queue_wakeup_accesses      2379825                       # Number of integer instruction queue wakeup accesses
system.cpu.iq.fp_inst_queue_reads               10164                       # Number of floating instruction queue reads
system.cpu.iq.fp_inst_queue_writes              11768                       # Number of floating instruction queue writes
system.cpu.iq.fp_inst_queue_wakeup_accesses         4150                       # Number of floating instruction queue wakeup accesses
system.cpu.iq.int_alu_accesses                2535809                       # Number of integer alu accesses
system.cpu.iq.fp_alu_accesses                    5023                       # Number of floating point alu accesses
system.cpu.iew.lsq.thread0.forwLoads            32424                       # Number of loads that had data forwarded from stores
system.cpu.iew.lsq.thread0.invAddrLoads             0                       # Number of loads ignored due to an invalid address
system.cpu.iew.lsq.thread0.squashedLoads       173255                       # Number of loads squashed
system.cpu.iew.lsq.thread0.ignoredResponses          565                       # Number of memory responses ignored because the instruction is squashed
system.cpu.iew.lsq.thread0.memOrderViolation         1221                       # Number of memory ordering violations
system.cpu.iew.lsq.thread0.squashedStores        79703                       # Number of stores squashed
system.cpu.iew.lsq.thread0.invAddrSwpfs             0                       # Number of software prefetches ignored due to an invalid address
system.cpu.iew.lsq.thread0.blockedLoads             0                       # Number of blocked loads due to partial load-store forwarding
system.cpu.iew.lsq.thread0.rescheduledLoads         1427                       # Number of loads that were rescheduled
system.cpu.iew.lsq.thread0.cacheBlocked          2467                       # Number of times an access to memory failed due to the cache being blocked
system.cpu.iew.iewIdleCycles                        0                       # Number of cycles IEW is idle
system.cpu.iew.iewSquashCycles                  52514                       # Number of cycles IEW is squashing
system.cpu.iew.iewBlockCycles                  295321                       # Number of cycles IEW is blocking
system.cpu.iew.iewUnblockCycles                132911                       # Number of cycles IEW is unblocking
system.cpu.iew.iewDispatchedInsts             2938694                       # Number of instructions dispatched to IQ
system.cpu.iew.iewDispSquashedInsts              4994                       # Number of squashed instructions skipped by dispatch
system.cpu.iew.iewDispLoadInsts                434308                       # Number of dispatched load instructions
system.cpu.iew.iewDispStoreInsts               272317                       # Number of dispatched store instructions
system.cpu.iew.iewDispNonSpecInsts              14871                       # Number of dispatched non-speculative instructions
system.cpu.iew.iewIQFullEvents                   1152                       # Number of times the IQ has become full, causing a stall
system.cpu.iew.iewLSQFullEvents                131255                       # Number of times the LSQ has become full, causing a stall
system.cpu.iew.memOrderViolationEvents           1221                       # Number of memory order violations
system.cpu.iew.predictedTakenIncorrect          18972                       # Number of branches that were predicted taken incorrectly
system.cpu.iew.predictedNotTakenIncorrect        44530                       # Number of branches that were predicted not taken incorrectly
system.cpu.iew.branchMispredicts                63502                       # Number of branch mispredicts detected at execute
system.cpu.iew.iewExecutedInsts               2429540                       # Number of executed instructions
system.cpu.iew.iewExecLoadInsts                350330                       # Number of load instructions executed
system.cpu.iew.iewExecSquashedInsts             97406                       # Number of squashed instructions skipped in execute
system.cpu.iew.exec_swp                             0                       # number of swp insts executed
system.cpu.iew.exec_nop                             0                       # number of nop insts executed
system.cpu.iew.exec_refs                       576111                       # number of memory reference insts executed
system.cpu.iew.exec_branches                   242513                       # Number of branches executed
system.cpu.iew.exec_stores                     225781                       # Number of stores executed
system.cpu.iew.exec_rate                     0.993909                       # Inst execution rate
system.cpu.iew.wb_sent                        2400449                       # cumulative count of insts sent to commit
system.cpu.iew.wb_count                       2383975                       # cumulative count of insts written-back
system.cpu.iew.wb_producers                   1575490                       # num instructions producing a value
system.cpu.iew.wb_consumers                   2533877                       # num instructions consuming a value
system.cpu.iew.wb_rate                       0.975269                       # insts written-back per cycle
system.cpu.iew.wb_fanout                     0.621771                       # average fanout of values written-back
system.cpu.commit.commitSquashedInsts         1153548                       # The number of squashed insts skipped by commit
system.cpu.commit.commitNonSpecStalls           11787                       # The number of times commit has been forced to stall to communicate backwards
system.cpu.commit.branchMispredicts             49963                       # The number of times a branch was mispredicted
system.cpu.commit.committed_per_cycle::samples      2125810                       # Number of insts commited each cycle
system.cpu.commit.committed_per_cycle::mean     0.839170                       # Number of insts commited each cycle
system.cpu.commit.committed_per_cycle::stdev     1.926134                       # Number of insts commited each cycle
system.cpu.commit.committed_per_cycle::underflows            0      0.00%      0.00% # Number of insts commited each cycle
system.cpu.commit.committed_per_cycle::0      1589953     74.79%     74.79% # Number of insts commited each cycle
system.cpu.commit.committed_per_cycle::1       189307      8.91%     83.70% # Number of insts commited each cycle
system.cpu.commit.committed_per_cycle::2        78076      3.67%     87.37% # Number of insts commited each cycle
system.cpu.commit.committed_per_cycle::3        80305      3.78%     91.15% # Number of insts commited each cycle
system.cpu.commit.committed_per_cycle::4        44548      2.10%     93.24% # Number of insts commited each cycle
system.cpu.commit.committed_per_cycle::5        27241      1.28%     94.53% # Number of insts commited each cycle
system.cpu.commit.committed_per_cycle::6        17858      0.84%     95.37% # Number of insts commited each cycle
system.cpu.commit.committed_per_cycle::7        12180      0.57%     95.94% # Number of insts commited each cycle
system.cpu.commit.committed_per_cycle::8        86342      4.06%    100.00% # Number of insts commited each cycle
system.cpu.commit.committed_per_cycle::overflows            0      0.00%    100.00% # Number of insts commited each cycle
system.cpu.commit.committed_per_cycle::min_value            0                       # Number of insts commited each cycle
system.cpu.commit.committed_per_cycle::max_value            8                       # Number of insts commited each cycle
system.cpu.commit.committed_per_cycle::total      2125810                       # Number of insts commited each cycle
system.cpu.commit.committedInsts               953523                       # Number of instructions committed
system.cpu.commit.committedOps                1783915                       # Number of ops (including micro ops) committed
system.cpu.commit.swp_count                         0                       # Number of s/w prefetches committed
system.cpu.commit.refs                         453667                       # Number of memory references committed
system.cpu.commit.loads                        261053                       # Number of loads committed
system.cpu.commit.membars                        1164                       # Number of memory barriers committed
system.cpu.commit.branches                     191098                       # Number of branches committed
system.cpu.commit.vec_insts                         0                       # Number of committed Vector instructions.
system.cpu.commit.fp_insts                       2440                       # Number of committed floating point instructions.
system.cpu.commit.int_insts                   1766065                       # Number of committed integer instructions.
system.cpu.commit.function_calls                20076                       # Number of function calls committed.
system.cpu.commit.op_class_0::No_OpClass        14802      0.83%      0.83% # Class of committed instruction
system.cpu.commit.op_class_0::IntAlu          1310668     73.47%     74.30% # Class of committed instruction
system.cpu.commit.op_class_0::IntMult            1284      0.07%     74.37% # Class of committed instruction
system.cpu.commit.op_class_0::IntDiv             1648      0.09%     74.47% # Class of committed instruction
system.cpu.commit.op_class_0::FloatAdd           1846      0.10%     74.57% # Class of committed instruction
system.cpu.commit.op_class_0::FloatCmp              0      0.00%     74.57% # Class of committed instruction
system.cpu.commit.op_class_0::FloatCvt              0      0.00%     74.57% # Class of committed instruction
system.cpu.commit.op_class_0::FloatMult             0      0.00%     74.57% # Class of committed instruction
system.cpu.commit.op_class_0::FloatMultAcc            0      0.00%     74.57% # Class of committed instruction
system.cpu.commit.op_class_0::FloatDiv              0      0.00%     74.57% # Class of committed instruction
system.cpu.commit.op_class_0::FloatMisc             0      0.00%     74.57% # Class of committed instruction
system.cpu.commit.op_class_0::FloatSqrt             0      0.00%     74.57% # Class of committed instruction
system.cpu.commit.op_class_0::SimdAdd               0      0.00%     74.57% # Class of committed instruction
system.cpu.commit.op_class_0::SimdAddAcc            0      0.00%     74.57% # Class of committed instruction
system.cpu.commit.op_class_0::SimdAlu               0      0.00%     74.57% # Class of committed instruction
system.cpu.commit.op_class_0::SimdCmp               0      0.00%     74.57% # Class of committed instruction
system.cpu.commit.op_class_0::SimdCvt               0      0.00%     74.57% # Class of committed instruction
system.cpu.commit.op_class_0::SimdMisc              0      0.00%     74.57% # Class of committed instruction
system.cpu.commit.op_class_0::SimdMult              0      0.00%     74.57% # Class of committed instruction
system.cpu.commit.op_class_0::SimdMultAcc            0      0.00%     74.57% # Class of committed instruction
system.cpu.commit.op_class_0::SimdShift             0      0.00%     74.57% # Class of committed instruction
system.cpu.commit.op_class_0::SimdShiftAcc            0      0.00%     74.57% # Class of committed instruction
system.cpu.commit.op_class_0::SimdSqrt              0      0.00%     74.57% # Class of committed instruction
system.cpu.commit.op_class_0::SimdFloatAdd            0      0.00%     74.57% # Class of committed instruction
system.cpu.commit.op_class_0::SimdFloatAlu            0      0.00%     74.57% # Class of committed instruction
system.cpu.commit.op_class_0::SimdFloatCmp            0      0.00%     74.57% # Class of committed instruction
system.cpu.commit.op_class_0::SimdFloatCvt            0      0.00%     74.57% # Class of committed instruction
system.cpu.commit.op_class_0::SimdFloatDiv            0      0.00%     74.57% # Class of committed instruction
system.cpu.commit.op_class_0::SimdFloatMisc            0      0.00%     74.57% # Class of committed instruction
system.cpu.commit.op_class_0::SimdFloatMult            0      0.00%     74.57% # Class of committed instruction
system.cpu.commit.op_class_0::SimdFloatMultAcc            0      0.00%     74.57% # Class of committed instruction
system.cpu.commit.op_class_0::SimdFloatSqrt            0      0.00%     74.57% # Class of committed instruction
system.cpu.commit.op_class_0::MemRead          260593     14.61%     89.18% # Class of committed instruction
system.cpu.commit.op_class_0::MemWrite         192614     10.80%     99.97% # Class of committed instruction
system.cpu.commit.op_class_0::FloatMemRead          460      0.03%    100.00% # Class of committed instruction
system.cpu.commit.op_class_0::FloatMemWrite            0      0.00%    100.00% # Class of committed instruction
system.cpu.commit.op_class_0::IprAccess             0      0.00%    100.00% # Class of committed instruction
system.cpu.commit.op_class_0::InstPrefetch            0      0.00%    100.00% # Class of committed instruction
system.cpu.commit.op_class_0::total           1783915                       # Class of committed instruction
system.cpu.commit.bw_lim_events                 86342                       # number cycles where commit BW limit reached
system.cpu.rob.rob_reads                      4971365                       # The number of ROB reads
system.cpu.rob.rob_writes                     6063622                       # The number of ROB writes
system.cpu.timesIdled                            7104                       # Number of times that the entire CPU went into an idle state and unscheduled itself
system.cpu.idleCycles                          132875                       # Total number of cycles that the CPU has spent unscheduled due to idling
system.cpu.committedInsts                      953523                       # Number of Instructions Simulated
system.cpu.committedOps                       1783915                       # Number of Ops (including micro ops) Simulated
system.cpu.cpi                               2.563576                       # CPI: Cycles Per Instruction
system.cpu.cpi_total                         2.563576                       # CPI: Total CPI of All Threads
system.cpu.ipc                               0.390080                       # IPC: Instructions Per Cycle
system.cpu.ipc_total                         0.390080                       # IPC: Total IPC of All Threads
system.cpu.int_regfile_reads                  3607541                       # number of integer regfile reads
system.cpu.int_regfile_writes                 1899138                       # number of integer regfile writes
system.cpu.fp_regfile_reads                      6715                       # number of floating regfile reads
system.cpu.fp_regfile_writes                     3511                       # number of floating regfile writes
system.cpu.cc_regfile_reads                   1110186                       # number of cc regfile reads
system.cpu.cc_regfile_writes                   712577                       # number of cc regfile writes
system.cpu.misc_regfile_reads                 1103199                       # number of misc regfile reads
system.cpu.misc_regfile_writes                  13155                       # number of misc regfile writes
system.cpu.dcache.tags.pwrStateResidencyTicks::UNDEFINED 4811243028500                       # Cumulative time (in ticks) in various power states
system.cpu.dcache.tags.replacements             21332                       # number of replacements
system.cpu.dcache.tags.tagsinuse                 1024                       # Cycle average of tags in use
system.cpu.dcache.tags.total_refs              459507                       # Total number of references to valid blocks.
system.cpu.dcache.tags.sampled_refs             21332                       # Sample count of references to valid blocks.
system.cpu.dcache.tags.avg_refs             21.540737                       # Average number of references to valid blocks.
system.cpu.dcache.tags.warmup_cycle                 0                       # Cycle when the warmup percentage was hit.
system.cpu.dcache.tags.occ_blocks::cpu.data         1024                       # Average occupied blocks per requestor
system.cpu.dcache.tags.occ_percent::cpu.data            1                       # Average percentage of cache occupancy
system.cpu.dcache.tags.occ_percent::total            1                       # Average percentage of cache occupancy
system.cpu.dcache.tags.occ_task_id_blocks::1024         1024                       # Occupied blocks per task id
system.cpu.dcache.tags.age_task_id_blocks_1024::0           54                       # Occupied blocks per task id
system.cpu.dcache.tags.age_task_id_blocks_1024::1          732                       # Occupied blocks per task id
system.cpu.dcache.tags.age_task_id_blocks_1024::2          237                       # Occupied blocks per task id
system.cpu.dcache.tags.age_task_id_blocks_1024::3            1                       # Occupied blocks per task id
system.cpu.dcache.tags.occ_task_id_percent::1024            1                       # Percentage of cache occupancy per task id
system.cpu.dcache.tags.tag_accesses           1033712                       # Number of tag accesses
system.cpu.dcache.tags.data_accesses          1033712                       # Number of data accesses
system.cpu.dcache.pwrStateResidencyTicks::UNDEFINED 4811243028500                       # Cumulative time (in ticks) in various power states
system.cpu.dcache.ReadReq_hits::cpu.data       286861                       # number of ReadReq hits
system.cpu.dcache.ReadReq_hits::total          286861                       # number of ReadReq hits
system.cpu.dcache.WriteReq_hits::cpu.data       183424                       # number of WriteReq hits
system.cpu.dcache.WriteReq_hits::total         183424                       # number of WriteReq hits
system.cpu.dcache.SoftPFReq_hits::cpu.data          561                       # number of SoftPFReq hits
system.cpu.dcache.SoftPFReq_hits::total           561                       # number of SoftPFReq hits
system.cpu.dcache.demand_hits::cpu.data        470285                       # number of demand (read+write) hits
system.cpu.dcache.demand_hits::total           470285                       # number of demand (read+write) hits
system.cpu.dcache.overall_hits::cpu.data       470846                       # number of overall hits
system.cpu.dcache.overall_hits::total          470846                       # number of overall hits
system.cpu.dcache.ReadReq_misses::cpu.data        23231                       # number of ReadReq misses
system.cpu.dcache.ReadReq_misses::total         23231                       # number of ReadReq misses
system.cpu.dcache.WriteReq_misses::cpu.data         9130                       # number of WriteReq misses
system.cpu.dcache.WriteReq_misses::total         9130                       # number of WriteReq misses
system.cpu.dcache.SoftPFReq_misses::cpu.data         2983                       # number of SoftPFReq misses
system.cpu.dcache.SoftPFReq_misses::total         2983                       # number of SoftPFReq misses
system.cpu.dcache.demand_misses::cpu.data        32361                       # number of demand (read+write) misses
system.cpu.dcache.demand_misses::total          32361                       # number of demand (read+write) misses
system.cpu.dcache.overall_misses::cpu.data        35344                       # number of overall misses
system.cpu.dcache.overall_misses::total         35344                       # number of overall misses
system.cpu.dcache.ReadReq_miss_latency::cpu.data    293354500                       # number of ReadReq miss cycles
system.cpu.dcache.ReadReq_miss_latency::total    293354500                       # number of ReadReq miss cycles
system.cpu.dcache.WriteReq_miss_latency::cpu.data    162135983                       # number of WriteReq miss cycles
system.cpu.dcache.WriteReq_miss_latency::total    162135983                       # number of WriteReq miss cycles
system.cpu.dcache.demand_miss_latency::cpu.data    455490483                       # number of demand (read+write) miss cycles
system.cpu.dcache.demand_miss_latency::total    455490483                       # number of demand (read+write) miss cycles
[...]
system.l2cache.demand_mshr_misses::total         1543                       # number of demand (read+write) MSHR misses
system.l2cache.overall_mshr_misses::cpu.inst          497                       # number of overall MSHR misses
system.l2cache.overall_mshr_misses::cpu.data         1046                       # number of overall MSHR misses
system.l2cache.overall_mshr_misses::total         1543                       # number of overall MSHR misses
system.l2cache.ReadReq_mshr_uncacheable::cpu.data          365                       # number of ReadReq MSHR uncacheable
system.l2cache.ReadReq_mshr_uncacheable::total          365                       # number of ReadReq MSHR uncacheable
system.l2cache.WriteReq_mshr_uncacheable::cpu.data          135                       # number of WriteReq MSHR uncacheable
system.l2cache.WriteReq_mshr_uncacheable::total          135                       # number of WriteReq MSHR uncacheable
system.l2cache.overall_mshr_uncacheable_misses::cpu.data          500                       # number of overall MSHR uncacheable misses
system.l2cache.overall_mshr_uncacheable_misses::total          500                       # number of overall MSHR uncacheable misses
system.l2cache.UpgradeReq_mshr_miss_latency::cpu.data     12207000                       # number of UpgradeReq MSHR miss cycles
system.l2cache.UpgradeReq_mshr_miss_latency::total     12207000                       # number of UpgradeReq MSHR miss cycles
system.l2cache.ReadExReq_mshr_miss_latency::cpu.data     46440500                       # number of ReadExReq MSHR miss cycles
system.l2cache.ReadExReq_mshr_miss_latency::total     46440500                       # number of ReadExReq MSHR miss cycles
system.l2cache.ReadSharedReq_mshr_miss_latency::cpu.inst     39429000                       # number of ReadSharedReq MSHR miss cycles
system.l2cache.ReadSharedReq_mshr_miss_latency::cpu.data     28144501                       # number of ReadSharedReq MSHR miss cycles
system.l2cache.ReadSharedReq_mshr_miss_latency::total     67573501                       # number of ReadSharedReq MSHR miss cycles
system.l2cache.demand_mshr_miss_latency::cpu.inst     39429000                       # number of demand (read+write) MSHR miss cycles
system.l2cache.demand_mshr_miss_latency::cpu.data     74585001                       # number of demand (read+write) MSHR miss cycles
system.l2cache.demand_mshr_miss_latency::total    114014001                       # number of demand (read+write) MSHR miss cycles
system.l2cache.overall_mshr_miss_latency::cpu.inst     39429000                       # number of overall MSHR miss cycles
system.l2cache.overall_mshr_miss_latency::cpu.data     74585001                       # number of overall MSHR miss cycles
system.l2cache.overall_mshr_miss_latency::total    114014001                       # number of overall MSHR miss cycles
system.l2cache.ReadReq_mshr_uncacheable_latency::cpu.data     79752500                       # number of ReadReq MSHR uncacheable cycles
system.l2cache.ReadReq_mshr_uncacheable_latency::total     79752500                       # number of ReadReq MSHR uncacheable cycles
system.l2cache.overall_mshr_uncacheable_latency::cpu.data     79752500                       # number of overall MSHR uncacheable cycles
system.l2cache.overall_mshr_uncacheable_latency::total     79752500                       # number of overall MSHR uncacheable cycles
system.l2cache.UpgradeReq_mshr_miss_rate::cpu.data     0.961098                       # mshr miss rate for UpgradeReq accesses
system.l2cache.UpgradeReq_mshr_miss_rate::total     0.961098                       # mshr miss rate for UpgradeReq accesses
system.l2cache.ReadExReq_mshr_miss_rate::cpu.data     0.055990                       # mshr miss rate for ReadExReq accesses
system.l2cache.ReadExReq_mshr_miss_rate::total     0.055990                       # mshr miss rate for ReadExReq accesses
system.l2cache.ReadSharedReq_mshr_miss_rate::cpu.inst     0.015642                       # mshr miss rate for ReadSharedReq accesses
system.l2cache.ReadSharedReq_mshr_miss_rate::cpu.data     0.013444                       # mshr miss rate for ReadSharedReq accesses
system.l2cache.ReadSharedReq_mshr_miss_rate::total     0.014787                       # mshr miss rate for ReadSharedReq accesses
system.l2cache.demand_mshr_miss_rate::cpu.inst     0.015642                       # mshr miss rate for demand accesses
system.l2cache.demand_mshr_miss_rate::cpu.data     0.030714                       # mshr miss rate for demand accesses
system.l2cache.demand_mshr_miss_rate::total     0.023439                       # mshr miss rate for demand accesses
system.l2cache.overall_mshr_miss_rate::cpu.inst     0.015642                       # mshr miss rate for overall accesses
system.l2cache.overall_mshr_miss_rate::cpu.data     0.030714                       # mshr miss rate for overall accesses
system.l2cache.overall_mshr_miss_rate::total     0.023439                       # mshr miss rate for overall accesses
system.l2cache.UpgradeReq_avg_mshr_miss_latency::cpu.data 14532.142857                       # average UpgradeReq mshr miss latency
system.l2cache.UpgradeReq_avg_mshr_miss_latency::total 14532.142857                       # average UpgradeReq mshr miss latency
system.l2cache.ReadExReq_avg_mshr_miss_latency::cpu.data 60000.645995                       # average ReadExReq mshr miss latency
system.l2cache.ReadExReq_avg_mshr_miss_latency::total 60000.645995                       # average ReadExReq mshr miss latency
system.l2cache.ReadSharedReq_avg_mshr_miss_latency::cpu.inst 79334.004024                       # average ReadSharedReq mshr miss latency
system.l2cache.ReadSharedReq_avg_mshr_miss_latency::cpu.data 103472.430147                       # average ReadSharedReq mshr miss latency
system.l2cache.ReadSharedReq_avg_mshr_miss_latency::total 87871.912874                       # average ReadSharedReq mshr miss latency
system.l2cache.demand_avg_mshr_miss_latency::cpu.inst 79334.004024                       # average overall mshr miss latency
system.l2cache.demand_avg_mshr_miss_latency::cpu.data 71304.972275                       # average overall mshr miss latency
system.l2cache.demand_avg_mshr_miss_latency::total 73891.121841                       # average overall mshr miss latency
system.l2cache.overall_avg_mshr_miss_latency::cpu.inst 79334.004024                       # average overall mshr miss latency
system.l2cache.overall_avg_mshr_miss_latency::cpu.data 71304.972275                       # average overall mshr miss latency
system.l2cache.overall_avg_mshr_miss_latency::total 73891.121841                       # average overall mshr miss latency
system.l2cache.ReadReq_avg_mshr_uncacheable_latency::cpu.data       218500                       # average ReadReq mshr uncacheable latency
system.l2cache.ReadReq_avg_mshr_uncacheable_latency::total       218500                       # average ReadReq mshr uncacheable latency
system.l2cache.overall_avg_mshr_uncacheable_latency::cpu.data       159505                       # average overall mshr uncacheable latency
system.l2cache.overall_avg_mshr_uncacheable_latency::total       159505                       # average overall mshr uncacheable latency
system.membus.snoop_filter.tot_requests         35714                       # Total number of requests made to the snoop filter.
system.membus.snoop_filter.hit_single_requests        34298                       # Number of requests hitting in the snoop filter with a single holder of the requested data.
system.membus.snoop_filter.hit_multi_requests            0                       # Number of requests hitting in the snoop filter with multiple (>1) holders of the requested data.
system.membus.snoop_filter.tot_snoops               0                       # Total number of snoops made to the snoop filter.
system.membus.snoop_filter.hit_single_snoops            0                       # Number of snoops hitting in the snoop filter with a single holder of the requested data.
system.membus.snoop_filter.hit_multi_snoops            0                       # Number of snoops hitting in the snoop filter with multiple (>1) holders of the requested data.
system.membus.pwrStateResidencyTicks::UNDEFINED 4811869324000                       # Cumulative time (in ticks) in various power states
system.membus.trans_dist::ReadReq               35541                       # Transaction distribution
system.membus.trans_dist::ReadResp              36310                       # Transaction distribution
system.membus.trans_dist::WriteReq                135                       # Transaction distribution
system.membus.trans_dist::WriteResp               135                       # Transaction distribution
system.membus.trans_dist::WritebackDirty          606                       # Transaction distribution
system.membus.trans_dist::CleanEvict              586                       # Transaction distribution
system.membus.trans_dist::UpgradeReq              967                       # Transaction distribution
system.membus.trans_dist::ReadExReq               647                       # Transaction distribution
system.membus.trans_dist::ReadExResp              647                       # Transaction distribution
system.membus.trans_dist::ReadSharedReq           769                       # Transaction distribution
system.membus.trans_dist::MessageReq              123                       # Transaction distribution
system.membus.trans_dist::MessageResp             123                       # Transaction distribution
system.membus.pkt_count_system.apicbridge.master::system.cpu.interrupts.int_slave          246                       # Packet count per connected master and slave (bytes)
system.membus.pkt_count_system.apicbridge.master::total          246                       # Packet count per connected master and slave (bytes)
system.membus.pkt_count_system.l2cache.mem_side::system.bridge.slave          984                       # Packet count per connected master and slave (bytes)
system.membus.pkt_count_system.l2cache.mem_side::system.mem_cntrl.port         4991                       # Packet count per connected master and slave (bytes)
system.membus.pkt_count_system.l2cache.mem_side::system.cpu.interrupts.pio           16                       # Packet count per connected master and slave (bytes)
system.membus.pkt_count_system.l2cache.mem_side::total         5991                       # Packet count per connected master and slave (bytes)
system.membus.pkt_count_system.cpu.itb.walker.port::system.mem_cntrl.port         7623                       # Packet count per connected master and slave (bytes)
system.membus.pkt_count_system.cpu.itb.walker.port::total         7623                       # Packet count per connected master and slave (bytes)
system.membus.pkt_count_system.cpu.dtb.walker.port::system.mem_cntrl.port        30640                       # Packet count per connected master and slave (bytes)
system.membus.pkt_count_system.cpu.dtb.walker.port::total        30640                       # Packet count per connected master and slave (bytes)
system.membus.pkt_count::total                  44500                       # Packet count per connected master and slave (bytes)
system.membus.pkt_size_system.apicbridge.master::system.cpu.interrupts.int_slave          492                       # Cumulative packet size per connected master and slave (bytes)
system.membus.pkt_size_system.apicbridge.master::total          492                       # Cumulative packet size per connected master and slave (bytes)
system.membus.pkt_size_system.l2cache.mem_side::system.bridge.slave          492                       # Cumulative packet size per connected master and slave (bytes)
system.membus.pkt_size_system.l2cache.mem_side::system.mem_cntrl.port       129408                       # Cumulative packet size per connected master and slave (bytes)
system.membus.pkt_size_system.l2cache.mem_side::system.cpu.interrupts.pio           32                       # Cumulative packet size per connected master and slave (bytes)
system.membus.pkt_size_system.l2cache.mem_side::total       129932                       # Cumulative packet size per connected master and slave (bytes)
system.membus.pkt_size_system.cpu.itb.walker.port::system.mem_cntrl.port          520                       # Cumulative packet size per connected master and slave (bytes)
system.membus.pkt_size_system.cpu.itb.walker.port::total          520                       # Cumulative packet size per connected master and slave (bytes)
system.membus.pkt_size_system.cpu.dtb.walker.port::system.mem_cntrl.port        24176                       # Cumulative packet size per connected master and slave (bytes)
system.membus.pkt_size_system.cpu.dtb.walker.port::total        24176                       # Cumulative packet size per connected master and slave (bytes)
system.membus.pkt_size::total                  155120                       # Cumulative packet size per connected master and slave (bytes)
system.membus.snoops                            32089                       # Total snoops (count)
system.membus.snoopTraffic                     256712                       # Total snoop traffic (bytes)
system.membus.snoop_fanout::samples             38182                       # Request fanout histogram
system.membus.snoop_fanout::mean             0.841732                       # Request fanout histogram
system.membus.snoop_fanout::stdev            0.364997                       # Request fanout histogram
system.membus.snoop_fanout::underflows              0      0.00%      0.00% # Request fanout histogram
system.membus.snoop_fanout::0                    6043     15.83%     15.83% # Request fanout histogram
system.membus.snoop_fanout::1                   32139     84.17%    100.00% # Request fanout histogram
system.membus.snoop_fanout::2                       0      0.00%    100.00% # Request fanout histogram
system.membus.snoop_fanout::overflows               0      0.00%    100.00% # Request fanout histogram
system.membus.snoop_fanout::min_value               0                       # Request fanout histogram
system.membus.snoop_fanout::max_value               1                       # Request fanout histogram
system.membus.snoop_fanout::total               38182                       # Request fanout histogram
system.membus.reqLayer0.occupancy              309500                       # Layer occupancy (ticks)
system.membus.reqLayer0.utilization               0.0                       # Layer utilization (%)
system.membus.reqLayer1.occupancy            20587500                       # Layer occupancy (ticks)
system.membus.reqLayer1.utilization               1.1                       # Layer utilization (%)
system.membus.reqLayer2.occupancy                8000                       # Layer occupancy (ticks)
system.membus.reqLayer2.utilization               0.0                       # Layer utilization (%)
system.membus.reqLayer3.occupancy              123000                       # Layer occupancy (ticks)
system.membus.reqLayer3.utilization               0.0                       # Layer utilization (%)
system.membus.respLayer1.occupancy              61500                       # Layer occupancy (ticks)
system.membus.respLayer1.utilization              0.0                       # Layer utilization (%)
system.membus.respLayer3.occupancy            4228250                       # Layer occupancy (ticks)
system.membus.respLayer3.utilization              0.2                       # Layer utilization (%)
system.membus.respLayer4.occupancy            7706477                       # Layer occupancy (ticks)
system.membus.respLayer4.utilization              0.4                       # Layer utilization (%)
system.membus.respLayer5.occupancy           28292896                       # Layer occupancy (ticks)
system.membus.respLayer5.utilization              1.5                       # Layer utilization (%)
system.membus.badaddr_responder.pwrStateResidencyTicks::UNDEFINED 4811869324000                       # Cumulative time (in ticks) in various power states
system.pc.behind_pci.pwrStateResidencyTicks::UNDEFINED 4811869324000                       # Cumulative time (in ticks) in various power states
system.pc.com_1.pwrStateResidencyTicks::UNDEFINED 4811869324000                       # Cumulative time (in ticks) in various power states
system.pc.fake_com_2.pwrStateResidencyTicks::UNDEFINED 4811869324000                       # Cumulative time (in ticks) in various power states
system.pc.fake_com_3.pwrStateResidencyTicks::UNDEFINED 4811869324000                       # Cumulative time (in ticks) in various power states
system.pc.fake_com_4.pwrStateResidencyTicks::UNDEFINED 4811869324000                       # Cumulative time (in ticks) in various power states
system.pc.fake_floppy.pwrStateResidencyTicks::UNDEFINED 4811869324000                       # Cumulative time (in ticks) in various power states
system.pc.i_dont_exist1.pwrStateResidencyTicks::UNDEFINED 4811869324000                       # Cumulative time (in ticks) in various power states
system.pc.i_dont_exist2.pwrStateResidencyTicks::UNDEFINED 4811869324000                       # Cumulative time (in ticks) in various power states
system.pc.pci_host.pwrStateResidencyTicks::UNDEFINED 4811869324000                       # Cumulative time (in ticks) in various power states
system.pc.south_bridge.cmos.pwrStateResidencyTicks::UNDEFINED 4811869324000                       # Cumulative time (in ticks) in various power states
system.pc.south_bridge.dma1.pwrStateResidencyTicks::UNDEFINED 4811869324000                       # Cumulative time (in ticks) in various power states
system.pc.south_bridge.pic2.pwrStateResidencyTicks::UNDEFINED 4811869324000                       # Cumulative time (in ticks) in various power states
system.pc.south_bridge.pic1.pwrStateResidencyTicks::UNDEFINED 4811869324000                       # Cumulative time (in ticks) in various power states
system.pc.south_bridge.io_apic.pwrStateResidencyTicks::UNDEFINED 4811869324000                       # Cumulative time (in ticks) in various power states
system.pc.south_bridge.keyboard.pwrStateResidencyTicks::UNDEFINED 4811869324000                       # Cumulative time (in ticks) in various power states
system.pc.south_bridge.pit.pwrStateResidencyTicks::UNDEFINED 4811869324000                       # Cumulative time (in ticks) in various power states
system.pc.south_bridge.speaker.pwrStateResidencyTicks::UNDEFINED 4811869324000                       # Cumulative time (in ticks) in various power states
system.pc.south_bridge.ide.disks.dma_read_full_pages            0                       # Number of full page size DMA reads (not PRD).
system.pc.south_bridge.ide.disks.dma_read_bytes            0                       # Number of bytes transfered via DMA reads (not PRD).
system.pc.south_bridge.ide.disks.dma_read_txs            0                       # Number of DMA read transactions (not PRD).
system.pc.south_bridge.ide.disks.dma_write_full_pages            0                       # Number of full page size DMA writes.
system.pc.south_bridge.ide.disks.dma_write_bytes            0                       # Number of bytes transfered via DMA writes.
system.pc.south_bridge.ide.disks.dma_write_txs            0                       # Number of DMA write transactions.
system.pc.south_bridge.ide.pwrStateResidencyTicks::UNDEFINED 4811869324000                       # Cumulative time (in ticks) in various power states
system.cpu.kern.inst.arm                            0                       # number of arm instructions executed
system.cpu.kern.inst.quiesce                        0                       # number of quiesce instructions executed

---------- End Simulation Statistics   ----------
