
---------- Begin Simulation Statistics ----------
sim_seconds                                  0.001250                       # Number of seconds simulated
sim_ticks                                  1249528000                       # Number of ticks simulated
final_tick                               4803296042500                       # Number of ticks from beginning of simulation (restored from checkpoints and never reset)
sim_freq                                 1000000000000                       # Frequency of simulated ticks
host_inst_rate                               79331902                       # Simulator instruction rate (inst/s)
host_op_rate                                185472353                       # Simulator op (including micro ops) rate (op/s)
host_tick_rate                               67766248                       # Simulator tick rate (ticks/s)
host_mem_usage                                1547896                       # Number of bytes of host memory used
host_seconds                                    18.44                       # Real time elapsed on the host
sim_insts                                  1462776405                       # Number of instructions simulated
sim_ops                                    3419881605                       # Number of ops (including micro ops) simulated
system.clk_domain.voltage_domain.voltage            1                       # Voltage in Volts
system.clk_domain.clock                           500                       # Clock period in ticks
system.mem_cntrl.pwrStateResidencyTicks::UNDEFINED 4803296042500                       # Cumulative time (in ticks) in various power states
system.mem_cntrl.bytes_read::cpu.dtb.walker        16592                       # Number of bytes read from this memory
system.mem_cntrl.bytes_read::cpu.itb.walker          392                       # Number of bytes read from this memory
system.mem_cntrl.bytes_read::cpu.inst           30656                       # Number of bytes read from this memory
system.mem_cntrl.bytes_read::cpu.data           44288                       # Number of bytes read from this memory
system.mem_cntrl.bytes_read::total              91928                       # Number of bytes read from this memory
system.mem_cntrl.bytes_inst_read::cpu.inst        30656                       # Number of instructions bytes read from this memory
system.mem_cntrl.bytes_inst_read::total         30656                       # Number of instructions bytes read from this memory
system.mem_cntrl.bytes_written::writebacks        32256                       # Number of bytes written to this memory
system.mem_cntrl.bytes_written::total           32256                       # Number of bytes written to this memory
system.mem_cntrl.num_reads::cpu.dtb.walker         2074                       # Number of read requests responded to by this memory
system.mem_cntrl.num_reads::cpu.itb.walker           49                       # Number of read requests responded to by this memory
system.mem_cntrl.num_reads::cpu.inst              479                       # Number of read requests responded to by this memory
system.mem_cntrl.num_reads::cpu.data              692                       # Number of read requests responded to by this memory
system.mem_cntrl.num_reads::total                3294                       # Number of read requests responded to by this memory
system.mem_cntrl.num_writes::writebacks           504                       # Number of write requests responded to by this memory
system.mem_cntrl.num_writes::total                504                       # Number of write requests responded to by this memory
system.mem_cntrl.bw_read::cpu.dtb.walker     13278614                       # Total read bandwidth from this memory (bytes/s)
system.mem_cntrl.bw_read::cpu.itb.walker       313718                       # Total read bandwidth from this memory (bytes/s)
system.mem_cntrl.bw_read::cpu.inst           24534064                       # Total read bandwidth from this memory (bytes/s)
system.mem_cntrl.bw_read::cpu.data           35443784                       # Total read bandwidth from this memory (bytes/s)
system.mem_cntrl.bw_read::total              73570180                       # Total read bandwidth from this memory (bytes/s)
system.mem_cntrl.bw_inst_read::cpu.inst      24534064                       # Instruction read bandwidth from this memory (bytes/s)
system.mem_cntrl.bw_inst_read::total         24534064                       # Instruction read bandwidth from this memory (bytes/s)
system.mem_cntrl.bw_write::writebacks        25814548                       # Write bandwidth from this memory (bytes/s)
system.mem_cntrl.bw_write::total             25814548                       # Write bandwidth from this memory (bytes/s)
system.mem_cntrl.bw_total::writebacks        25814548                       # Total bandwidth to/from this memory (bytes/s)
system.mem_cntrl.bw_total::cpu.dtb.walker     13278614                       # Total bandwidth to/from this memory (bytes/s)
system.mem_cntrl.bw_total::cpu.itb.walker       313718                       # Total bandwidth to/from this memory (bytes/s)
system.mem_cntrl.bw_total::cpu.inst          24534064                       # Total bandwidth to/from this memory (bytes/s)
system.mem_cntrl.bw_total::cpu.data          35443784                       # Total bandwidth to/from this memory (bytes/s)
system.mem_cntrl.bw_total::total             99384728                       # Total bandwidth to/from this memory (bytes/s)
system.mem_cntrl.readReqs                        3294                       # Number of read requests accepted
system.mem_cntrl.writeReqs                        504                       # Number of write requests accepted
system.mem_cntrl.readBursts                      3294                       # Number of DRAM read bursts, including those serviced by the write queue
system.mem_cntrl.writeBursts                      504                       # Number of DRAM write bursts, including those merged in the write queue
system.mem_cntrl.bytesReadDRAM                 210752                       # Total number of bytes read from DRAM
system.mem_cntrl.bytesReadWrQ                      64                       # Total number of bytes read from write queue
system.mem_cntrl.bytesWritten                   31936                       # Total number of bytes written to DRAM
system.mem_cntrl.bytesReadSys                   91928                       # Total read bytes from the system interface side
system.mem_cntrl.bytesWrittenSys                32256                       # Total written bytes from the system interface side
system.mem_cntrl.servicedByWrQ                      1                       # Number of DRAM read bursts serviced by the write queue
system.mem_cntrl.mergedWrBursts                     0                       # Number of DRAM write bursts merged with an existing one
system.mem_cntrl.neitherReadNorWriteReqs            0                       # Number of requests that are neither read nor write
system.mem_cntrl.perBankRdBursts::0               100                       # Per bank write bursts
system.mem_cntrl.perBankRdBursts::1                51                       # Per bank write bursts
system.mem_cntrl.perBankRdBursts::2                20                       # Per bank write bursts
system.mem_cntrl.perBankRdBursts::3                27                       # Per bank write bursts
system.mem_cntrl.perBankRdBursts::4               309                       # Per bank write bursts
system.mem_cntrl.perBankRdBursts::5               296                       # Per bank write bursts
system.mem_cntrl.perBankRdBursts::6               848                       # Per bank write bursts
system.mem_cntrl.perBankRdBursts::7               201                       # Per bank write bursts
system.mem_cntrl.perBankRdBursts::8               655                       # Per bank write bursts
system.mem_cntrl.perBankRdBursts::9               101                       # Per bank write bursts
system.mem_cntrl.perBankRdBursts::10              143                       # Per bank write bursts
system.mem_cntrl.perBankRdBursts::11              185                       # Per bank write bursts
system.mem_cntrl.perBankRdBursts::12               44                       # Per bank write bursts
system.mem_cntrl.perBankRdBursts::13               69                       # Per bank write bursts
system.mem_cntrl.perBankRdBursts::14              114                       # Per bank write bursts
system.mem_cntrl.perBankRdBursts::15              130                       # Per bank write bursts
system.mem_cntrl.perBankWrBursts::0                52                       # Per bank write bursts
system.mem_cntrl.perBankWrBursts::1                29                       # Per bank write bursts
system.mem_cntrl.perBankWrBursts::2                 8                       # Per bank write bursts
system.mem_cntrl.perBankWrBursts::3                20                       # Per bank write bursts
system.mem_cntrl.perBankWrBursts::4                 9                       # Per bank write bursts
system.mem_cntrl.perBankWrBursts::5                32                       # Per bank write bursts
system.mem_cntrl.perBankWrBursts::6                51                       # Per bank write bursts
system.mem_cntrl.perBankWrBursts::7                 9                       # Per bank write bursts
system.mem_cntrl.perBankWrBursts::8                10                       # Per bank write bursts
system.mem_cntrl.perBankWrBursts::9                49                       # Per bank write bursts
system.mem_cntrl.perBankWrBursts::10               28                       # Per bank write bursts
system.mem_cntrl.perBankWrBursts::11               52                       # Per bank write bursts
system.mem_cntrl.perBankWrBursts::12               18                       # Per bank write bursts
system.mem_cntrl.perBankWrBursts::13               35                       # Per bank write bursts
system.mem_cntrl.perBankWrBursts::14               43                       # Per bank write bursts
system.mem_cntrl.perBankWrBursts::15               54                       # Per bank write bursts
system.mem_cntrl.numRdRetry                         0                       # Number of times read queue was full causing retry
system.mem_cntrl.numWrRetry                         0                       # Number of times write queue was full causing retry
system.mem_cntrl.totGap                    1248677000                       # Total gap between requests
system.mem_cntrl.readPktSize::0                     0                       # Read request sizes (log2)
system.mem_cntrl.readPktSize::1                     0                       # Read request sizes (log2)
system.mem_cntrl.readPktSize::2                     0                       # Read request sizes (log2)
system.mem_cntrl.readPktSize::3                  2123                       # Read request sizes (log2)
system.mem_cntrl.readPktSize::4                     0                       # Read request sizes (log2)
system.mem_cntrl.readPktSize::5                     0                       # Read request sizes (log2)
system.mem_cntrl.readPktSize::6                  1171                       # Read request sizes (log2)
system.mem_cntrl.writePktSize::0                    0                       # Write request sizes (log2)
system.mem_cntrl.writePktSize::1                    0                       # Write request sizes (log2)
system.mem_cntrl.writePktSize::2                    0                       # Write request sizes (log2)
system.mem_cntrl.writePktSize::3                    0                       # Write request sizes (log2)
system.mem_cntrl.writePktSize::4                    0                       # Write request sizes (log2)
system.mem_cntrl.writePktSize::5                    0                       # Write request sizes (log2)
system.mem_cntrl.writePktSize::6                  504                       # Write request sizes (log2)
system.mem_cntrl.rdQLenPdf::0                    3069                       # What read queue length does an incoming req see
system.mem_cntrl.rdQLenPdf::1                     204                       # What read queue length does an incoming req see
system.mem_cntrl.rdQLenPdf::2                      17                       # What read queue length does an incoming req see
system.mem_cntrl.rdQLenPdf::3                       3                       # What read queue length does an incoming req see
system.mem_cntrl.rdQLenPdf::4                       0                       # What read queue length does an incoming req see
system.mem_cntrl.rdQLenPdf::5                       0                       # What read queue length does an incoming req see
system.mem_cntrl.rdQLenPdf::6                       0                       # What read queue length does an incoming req see
system.mem_cntrl.rdQLenPdf::7                       0                       # What read queue length does an incoming req see
system.mem_cntrl.rdQLenPdf::8                       0                       # What read queue length does an incoming req see
system.mem_cntrl.rdQLenPdf::9                       0                       # What read queue length does an incoming req see
system.mem_cntrl.rdQLenPdf::10                      0                       # What read queue length does an incoming req see
system.mem_cntrl.rdQLenPdf::11                      0                       # What read queue length does an incoming req see
system.mem_cntrl.rdQLenPdf::12                      0                       # What read queue length does an incoming req see
system.mem_cntrl.rdQLenPdf::13                      0                       # What read queue length does an incoming req see
system.mem_cntrl.rdQLenPdf::14                      0                       # What read queue length does an incoming req see
system.mem_cntrl.rdQLenPdf::15                      0                       # What read queue length does an incoming req see
system.mem_cntrl.rdQLenPdf::16                      0                       # What read queue length does an incoming req see
system.mem_cntrl.rdQLenPdf::17                      0                       # What read queue length does an incoming req see
system.mem_cntrl.rdQLenPdf::18                      0                       # What read queue length does an incoming req see
system.mem_cntrl.rdQLenPdf::19                      0                       # What read queue length does an incoming req see
system.mem_cntrl.rdQLenPdf::20                      0                       # What read queue length does an incoming req see
system.mem_cntrl.rdQLenPdf::21                      0                       # What read queue length does an incoming req see
system.mem_cntrl.rdQLenPdf::22                      0                       # What read queue length does an incoming req see
system.mem_cntrl.rdQLenPdf::23                      0                       # What read queue length does an incoming req see
system.mem_cntrl.rdQLenPdf::24                      0                       # What read queue length does an incoming req see
system.mem_cntrl.rdQLenPdf::25                      0                       # What read queue length does an incoming req see
system.mem_cntrl.rdQLenPdf::26                      0                       # What read queue length does an incoming req see
system.mem_cntrl.rdQLenPdf::27                      0                       # What read queue length does an incoming req see
system.mem_cntrl.rdQLenPdf::28                      0                       # What read queue length does an incoming req see
system.mem_cntrl.rdQLenPdf::29                      0                       # What read queue length does an incoming req see
system.mem_cntrl.rdQLenPdf::30                      0                       # What read queue length does an incoming req see
system.mem_cntrl.rdQLenPdf::31                      0                       # What read queue length does an incoming req see
system.mem_cntrl.wrQLenPdf::0                       0                       # What write queue length does an incoming req see
system.mem_cntrl.wrQLenPdf::1                       0                       # What write queue length does an incoming req see
system.mem_cntrl.wrQLenPdf::2                       0                       # What write queue length does an incoming req see
system.mem_cntrl.wrQLenPdf::3                       0                       # What write queue length does an incoming req see
system.mem_cntrl.wrQLenPdf::4                       0                       # What write queue length does an incoming req see
system.mem_cntrl.wrQLenPdf::5                       0                       # What write queue length does an incoming req see
system.mem_cntrl.wrQLenPdf::6                       0                       # What write queue length does an incoming req see
system.mem_cntrl.wrQLenPdf::7                       0                       # What write queue length does an incoming req see
system.mem_cntrl.wrQLenPdf::8                       0                       # What write queue length does an incoming req see
system.mem_cntrl.wrQLenPdf::9                       0                       # What write queue length does an incoming req see
system.mem_cntrl.wrQLenPdf::10                      0                       # What write queue length does an incoming req see
system.mem_cntrl.wrQLenPdf::11                      0                       # What write queue length does an incoming req see
system.mem_cntrl.wrQLenPdf::12                      0                       # What write queue length does an incoming req see
system.mem_cntrl.wrQLenPdf::13                      0                       # What write queue length does an incoming req see
system.mem_cntrl.wrQLenPdf::14                      0                       # What write queue length does an incoming req see
system.mem_cntrl.wrQLenPdf::15                      9                       # What write queue length does an incoming req see
system.mem_cntrl.wrQLenPdf::16                      9                       # What write queue length does an incoming req see
system.mem_cntrl.wrQLenPdf::17                     30                       # What write queue length does an incoming req see
system.mem_cntrl.wrQLenPdf::18                     30                       # What write queue length does an incoming req see
system.mem_cntrl.wrQLenPdf::19                     30                       # What write queue length does an incoming req see
system.mem_cntrl.wrQLenPdf::20                     31                       # What write queue length does an incoming req see
system.mem_cntrl.wrQLenPdf::21                     31                       # What write queue length does an incoming req see
system.mem_cntrl.wrQLenPdf::22                     31                       # What write queue length does an incoming req see
system.mem_cntrl.wrQLenPdf::23                     31                       # What write queue length does an incoming req see
system.mem_cntrl.wrQLenPdf::24                     31                       # What write queue length does an incoming req see
system.mem_cntrl.wrQLenPdf::25                     30                       # What write queue length does an incoming req see
system.mem_cntrl.wrQLenPdf::26                     30                       # What write queue length does an incoming req see
system.mem_cntrl.wrQLenPdf::27                     30                       # What write queue length does an incoming req see
system.mem_cntrl.wrQLenPdf::28                     30                       # What write queue length does an incoming req see
system.mem_cntrl.wrQLenPdf::29                     30                       # What write queue length does an incoming req see
system.mem_cntrl.wrQLenPdf::30                     31                       # What write queue length does an incoming req see
system.mem_cntrl.wrQLenPdf::31                     30                       # What write queue length does an incoming req see
system.mem_cntrl.wrQLenPdf::32                     30                       # What write queue length does an incoming req see
system.mem_cntrl.wrQLenPdf::33                      0                       # What write queue length does an incoming req see
system.mem_cntrl.wrQLenPdf::34                      0                       # What write queue length does an incoming req see
system.mem_cntrl.wrQLenPdf::35                      0                       # What write queue length does an incoming req see
system.mem_cntrl.wrQLenPdf::36                      0                       # What write queue length does an incoming req see
system.mem_cntrl.wrQLenPdf::37                      0                       # What write queue length does an incoming req see
system.mem_cntrl.wrQLenPdf::38                      0                       # What write queue length does an incoming req see
system.mem_cntrl.wrQLenPdf::39                      0                       # What write queue length does an incoming req see
system.mem_cntrl.wrQLenPdf::40                      0                       # What write queue length does an incoming req see
system.mem_cntrl.wrQLenPdf::41                      0                       # What write queue length does an incoming req see
system.mem_cntrl.wrQLenPdf::42                      0                       # What write queue length does an incoming req see
system.mem_cntrl.wrQLenPdf::43                      0                       # What write queue length does an incoming req see
system.mem_cntrl.wrQLenPdf::44                      0                       # What write queue length does an incoming req see
system.mem_cntrl.wrQLenPdf::45                      0                       # What write queue length does an incoming req see
system.mem_cntrl.wrQLenPdf::46                      0                       # What write queue length does an incoming req see
system.mem_cntrl.wrQLenPdf::47                      0                       # What write queue length does an incoming req see
system.mem_cntrl.wrQLenPdf::48                      0                       # What write queue length does an incoming req see
system.mem_cntrl.wrQLenPdf::49                      0                       # What write queue length does an incoming req see
system.mem_cntrl.wrQLenPdf::50                      0                       # What write queue length does an incoming req see
system.mem_cntrl.wrQLenPdf::51                      0                       # What write queue length does an incoming req see
system.mem_cntrl.wrQLenPdf::52                      0                       # What write queue length does an incoming req see
system.mem_cntrl.wrQLenPdf::53                      0                       # What write queue length does an incoming req see
system.mem_cntrl.wrQLenPdf::54                      0                       # What write queue length does an incoming req see
system.mem_cntrl.wrQLenPdf::55                      0                       # What write queue length does an incoming req see
system.mem_cntrl.wrQLenPdf::56                      0                       # What write queue length does an incoming req see
system.mem_cntrl.wrQLenPdf::57                      0                       # What write queue length does an incoming req see
system.mem_cntrl.wrQLenPdf::58                      0                       # What write queue length does an incoming req see
system.mem_cntrl.wrQLenPdf::59                      0                       # What write queue length does an incoming req see
system.mem_cntrl.wrQLenPdf::60                      0                       # What write queue length does an incoming req see
system.mem_cntrl.wrQLenPdf::61                      0                       # What write queue length does an incoming req see
system.mem_cntrl.wrQLenPdf::62                      0                       # What write queue length does an incoming req see
system.mem_cntrl.wrQLenPdf::63                      0                       # What write queue length does an incoming req see
system.mem_cntrl.bytesPerActivate::samples         1129                       # Bytes accessed per row activation
system.mem_cntrl.bytesPerActivate::mean    215.015058                       # Bytes accessed per row activation
system.mem_cntrl.bytesPerActivate::gmean   132.743632                       # Bytes accessed per row activation
system.mem_cntrl.bytesPerActivate::stdev   259.605799                       # Bytes accessed per row activation
system.mem_cntrl.bytesPerActivate::0-127          564     49.96%     49.96% # Bytes accessed per row activation
system.mem_cntrl.bytesPerActivate::128-255          284     25.16%     75.11% # Bytes accessed per row activation
system.mem_cntrl.bytesPerActivate::256-383           93      8.24%     83.35% # Bytes accessed per row activation
system.mem_cntrl.bytesPerActivate::384-511           52      4.61%     87.95% # Bytes accessed per row activation
system.mem_cntrl.bytesPerActivate::512-639           21      1.86%     89.81% # Bytes accessed per row activation
system.mem_cntrl.bytesPerActivate::640-767           24      2.13%     91.94% # Bytes accessed per row activation
system.mem_cntrl.bytesPerActivate::768-895           18      1.59%     93.53% # Bytes accessed per row activation
system.mem_cntrl.bytesPerActivate::896-1023           15      1.33%     94.86% # Bytes accessed per row activation
system.mem_cntrl.bytesPerActivate::1024-1151           58      5.14%    100.00% # Bytes accessed per row activation
system.mem_cntrl.bytesPerActivate::total         1129                       # Bytes accessed per row activation
system.mem_cntrl.rdPerTurnAround::samples           30                       # Reads before turning the bus around for writes
system.mem_cntrl.rdPerTurnAround::mean     104.533333                       # Reads before turning the bus around for writes
system.mem_cntrl.rdPerTurnAround::gmean     75.964952                       # Reads before turning the bus around for writes
system.mem_cntrl.rdPerTurnAround::stdev     94.193394                       # Reads before turning the bus around for writes
system.mem_cntrl.rdPerTurnAround::32-47            12     40.00%     40.00% # Reads before turning the bus around for writes
system.mem_cntrl.rdPerTurnAround::48-63             5     16.67%     56.67% # Reads before turning the bus around for writes
system.mem_cntrl.rdPerTurnAround::64-79             3     10.00%     66.67% # Reads before turning the bus around for writes
system.mem_cntrl.rdPerTurnAround::112-127            2      6.67%     73.33% # Reads before turning the bus around for writes
system.mem_cntrl.rdPerTurnAround::160-175            1      3.33%     76.67% # Reads before turning the bus around for writes
system.mem_cntrl.rdPerTurnAround::192-207            2      6.67%     83.33% # Reads before turning the bus around for writes
system.mem_cntrl.rdPerTurnAround::208-223            2      6.67%     90.00% # Reads before turning the bus around for writes
system.mem_cntrl.rdPerTurnAround::288-303            2      6.67%     96.67% # Reads before turning the bus around for writes
system.mem_cntrl.rdPerTurnAround::368-383            1      3.33%    100.00% # Reads before turning the bus around for writes
system.mem_cntrl.rdPerTurnAround::total            30                       # Reads before turning the bus around for writes
system.mem_cntrl.wrPerTurnAround::samples           30                       # Writes before turning the bus around for reads
system.mem_cntrl.wrPerTurnAround::mean      16.633333                       # Writes before turning the bus around for reads
system.mem_cntrl.wrPerTurnAround::gmean     16.605366                       # Writes before turning the bus around for reads
system.mem_cntrl.wrPerTurnAround::stdev      0.999425                       # Writes before turning the bus around for reads
system.mem_cntrl.wrPerTurnAround::16               21     70.00%     70.00% # Writes before turning the bus around for reads
system.mem_cntrl.wrPerTurnAround::18                8     26.67%     96.67% # Writes before turning the bus around for reads
system.mem_cntrl.wrPerTurnAround::19                1      3.33%    100.00% # Writes before turning the bus around for reads
system.mem_cntrl.wrPerTurnAround::total            30                       # Writes before turning the bus around for reads
system.mem_cntrl.totQLat                     67188250                       # Total ticks spent queuing
system.mem_cntrl.totMemAccLat               128932000                       # Total ticks spent from burst creation until serviced by the DRAM
system.mem_cntrl.totBusLat                   16465000                       # Total ticks spent in databus transfers
system.mem_cntrl.avgQLat                     20403.36                       # Average queueing delay per DRAM burst
system.mem_cntrl.avgBusLat                    5000.00                       # Average bus latency per DRAM burst
system.mem_cntrl.avgMemAccLat                39153.36                       # Average memory access latency per DRAM burst
system.mem_cntrl.avgRdBW                       168.67                       # Average DRAM read bandwidth in MiByte/s
system.mem_cntrl.avgWrBW                        25.56                       # Average achieved write bandwidth in MiByte/s
system.mem_cntrl.avgRdBWSys                     73.57                       # Average system read bandwidth in MiByte/s
system.mem_cntrl.avgWrBWSys                     25.81                       # Average system write bandwidth in MiByte/s
system.mem_cntrl.peakBW                      12800.00                       # Theoretical peak bandwidth in MiByte/s
system.mem_cntrl.busUtil                         1.52                       # Data bus utilization in percentage
system.mem_cntrl.busUtilRead                     1.32                       # Data bus utilization in percentage for reads
system.mem_cntrl.busUtilWrite                    0.20                       # Data bus utilization in percentage for writes
system.mem_cntrl.avgRdQLen                       1.04                       # Average read queue length when enqueuing
system.mem_cntrl.avgWrQLen                      24.97                       # Average write queue length when enqueuing
system.mem_cntrl.readRowHits                     2425                       # Number of row buffer hits during reads
system.mem_cntrl.writeRowHits                     237                       # Number of row buffer hits during writes
system.mem_cntrl.readRowHitRate                 73.64                       # Row buffer hit rate for reads
system.mem_cntrl.writeRowHitRate                47.02                       # Row buffer hit rate for writes
system.mem_cntrl.avgGap                     328772.25                       # Average gap between requests
system.mem_cntrl.pageHitRate                    70.11                       # Row buffer hit rate, read and write combined
system.mem_cntrl_0.actEnergy                  4533900                       # Energy for activate commands per rank (pJ)
system.mem_cntrl_0.preEnergy                  2409825                       # Energy for precharge commands per rank (pJ)
system.mem_cntrl_0.readEnergy                13223280                       # Energy for read commands per rank (pJ)
system.mem_cntrl_0.writeEnergy                1096200                       # Energy for write commands per rank (pJ)
system.mem_cntrl_0.refreshEnergy         93425280.000000                       # Energy for refresh commands per rank (pJ)
system.mem_cntrl_0.actBackEnergy             51695010                       # Energy for active background per rank (pJ)
system.mem_cntrl_0.preBackEnergy              2695200                       # Energy for precharge background per rank (pJ)
system.mem_cntrl_0.actPowerDownEnergy       325746450                       # Energy for active power-down per rank (pJ)
system.mem_cntrl_0.prePowerDownEnergy       109112640                       # Energy for precharge power-down per rank (pJ)
system.mem_cntrl_0.selfRefreshEnergy         36474060                       # Energy for self refresh per rank (pJ)
system.mem_cntrl_0.totalEnergy              640511175                       # Total energy per rank (pJ)
system.mem_cntrl_0.averagePower            512.602499                       # Core power per rank (mW)
system.mem_cntrl_0.totalIdleTime           1128814250                       # Total Idle time Per DRAM Rank
system.mem_cntrl_0.memoryStateTime::IDLE      3144000                       # Time in different power states
system.mem_cntrl_0.memoryStateTime::REF      39580000                       # Time in different power states
system.mem_cntrl_0.memoryStateTime::SREF    131046250                       # Time in different power states
system.mem_cntrl_0.memoryStateTime::PRE_PDN    284140750                       # Time in different power states
system.mem_cntrl_0.memoryStateTime::ACT      77765750                       # Time in different power states
system.mem_cntrl_0.memoryStateTime::ACT_PDN    714478750                       # Time in different power states
system.mem_cntrl_1.actEnergy                  3548580                       # Energy for activate commands per rank (pJ)
system.mem_cntrl_1.preEnergy                  1874730                       # Energy for precharge commands per rank (pJ)
system.mem_cntrl_1.readEnergy                10324440                       # Energy for read commands per rank (pJ)
system.mem_cntrl_1.writeEnergy                1508580                       # Energy for write commands per rank (pJ)
system.mem_cntrl_1.refreshEnergy         89737440.000000                       # Energy for refresh commands per rank (pJ)
system.mem_cntrl_1.actBackEnergy             45519630                       # Energy for active background per rank (pJ)
system.mem_cntrl_1.preBackEnergy              3712320                       # Energy for precharge background per rank (pJ)
system.mem_cntrl_1.actPowerDownEnergy       285419520                       # Energy for active power-down per rank (pJ)
system.mem_cntrl_1.prePowerDownEnergy       105517920                       # Energy for precharge power-down per rank (pJ)
system.mem_cntrl_1.selfRefreshEnergy         68484420                       # Energy for self refresh per rank (pJ)
system.mem_cntrl_1.totalEnergy              615647580                       # Total energy per rank (pJ)
system.mem_cntrl_1.averagePower            492.704109                       # Core power per rank (mW)
system.mem_cntrl_1.totalIdleTime           1139366500                       # Total Idle time Per DRAM Rank
system.mem_cntrl_1.memoryStateTime::IDLE      5514000                       # Time in different power states
system.mem_cntrl_1.memoryStateTime::REF      38068000                       # Time in different power states
system.mem_cntrl_1.memoryStateTime::SREF    243932750                       # Time in different power states
system.mem_cntrl_1.memoryStateTime::PRE_PDN    274537000                       # Time in different power states
system.mem_cntrl_1.memoryStateTime::ACT      65728500                       # Time in different power states
system.mem_cntrl_1.memoryStateTime::ACT_PDN    622000500                       # Time in different power states
system.pwrStateResidencyTicks::UNDEFINED 4803296042500                       # Cumulative time (in ticks) in various power states
system.apicbridge.pwrStateResidencyTicks::UNDEFINED 4803296042500                       # Cumulative time (in ticks) in various power states
system.bridge.pwrStateResidencyTicks::UNDEFINED 4803296042500                       # Cumulative time (in ticks) in various power states
system.cpu.branchPred.lookups                  455984                       # Number of BP lookups
system.cpu.branchPred.condPredicted            455984                       # Number of conditional branches predicted
system.cpu.branchPred.condIncorrect             53640                       # Number of conditional branches incorrect
system.cpu.branchPred.BTBLookups               380735                       # Number of BTB lookups
system.cpu.branchPred.BTBHits                       0                       # Number of BTB hits
system.cpu.branchPred.BTBCorrect                    0                       # Number of correct BTB predictions (this stat may not work properly.
system.cpu.branchPred.BTBHitPct              0.000000                       # BTB Hit Percentage
system.cpu.branchPred.usedRAS                   45912                       # Number of times the RAS was used to get a target.
system.cpu.branchPred.RASInCorrect              10905                       # Number of incorrect RAS predictions.
system.cpu.branchPred.correctpredictionPercent    88.236429                       # Correct prediction percentage
system.cpu.branchPred.indirectLookups          380735                       # Number of indirect predictor lookups.
system.cpu.branchPred.indirectHits              98767                       # Number of indirect target hits.
system.cpu.branchPred.indirectMisses           281968                       # Number of indirect misses.
system.cpu.branchPredindirectMispredicted        37977                       # Number of mispredicted indirect branches.
system.cpu.dtb.walker.pwrStateResidencyTicks::UNDEFINED 4803296042500                       # Cumulative time (in ticks) in various power states
system.cpu.dtb.rdAccesses                      365681                       # TLB accesses on read requests
system.cpu.dtb.wrAccesses                      231070                       # TLB accesses on write requests
system.cpu.dtb.rdMisses                          8962                       # TLB misses on read requests
system.cpu.dtb.wrMisses                          1902                       # TLB misses on write requests
system.cpu.apic_clk_domain.clock                 8000                       # Clock period in ticks
system.cpu.interrupts.pwrStateResidencyTicks::UNDEFINED 4803296042500                       # Cumulative time (in ticks) in various power states
system.cpu.itb.walker.pwrStateResidencyTicks::UNDEFINED 4803296042500                       # Cumulative time (in ticks) in various power states
system.cpu.itb.rdAccesses                           0                       # TLB accesses on read requests
system.cpu.itb.wrAccesses                      289162                       # TLB accesses on write requests
system.cpu.itb.rdMisses                             0                       # TLB misses on read requests
system.cpu.itb.wrMisses                          1505                       # TLB misses on write requests
system.cpu.pwrStateResidencyTicks::ON      2516699000                       # Cumulative time (in ticks) in various power states
system.cpu.numCycles                          2499056                       # number of cpu cycles simulated
system.cpu.numWorkItemsStarted                      0                       # number of work items this cpu started
system.cpu.numWorkItemsCompleted                    0                       # number of work items this cpu completed
system.cpu.fetch.icacheStallCycles             586681                       # Number of cycles fetch is stalled on an Icache miss
system.cpu.fetch.Insts                        2088947                       # Number of instructions fetch has processed
system.cpu.fetch.Branches                      455984                       # Number of branches that fetch encountered
system.cpu.fetch.predictedBranches             144679                       # Number of branches that fetch has predicted taken
system.cpu.fetch.Cycles                       1610553                       # Number of cycles fetch has run and was not squashing or blocked
system.cpu.fetch.SquashCycles                  117648                       # Number of cycles fetch has spent squashing
system.cpu.fetch.TlbCycles                      51189                       # Number of cycles fetch has spent waiting for tlb
system.cpu.fetch.MiscStallCycles                 2296                       # Number of cycles fetch has spent waiting on interrupts, or bad addresses, or out of MSHRs
system.cpu.fetch.PendingTrapStallCycles         42389                       # Number of stall cycles due to pending traps
system.cpu.fetch.PendingQuiesceStallCycles           19                       # Number of stall cycles due to pending quiesce instructions
system.cpu.fetch.CacheLines                    282501                       # Number of cache lines fetched
system.cpu.fetch.IcacheSquashes                 21072                       # Number of outstanding Icache misses that were squashed
system.cpu.fetch.ItlbSquashes                     807                       # Number of outstanding ITLB misses that were squashed
system.cpu.fetch.rateDist::samples            2351951                       # Number of instructions fetched each cycle (Total)
system.cpu.fetch.rateDist::mean              1.737525                       # Number of instructions fetched each cycle (Total)
system.cpu.fetch.rateDist::stdev             3.093091                       # Number of instructions fetched each cycle (Total)
system.cpu.fetch.rateDist::underflows               0      0.00%      0.00% # Number of instructions fetched each cycle (Total)
system.cpu.fetch.rateDist::0                  1698923     72.23%     72.23% # Number of instructions fetched each cycle (Total)
system.cpu.fetch.rateDist::1                    57868      2.46%     74.70% # Number of instructions fetched each cycle (Total)
system.cpu.fetch.rateDist::2                    31761      1.35%     76.05% # Number of instructions fetched each cycle (Total)
system.cpu.fetch.rateDist::3                    38527      1.64%     77.68% # Number of instructions fetched each cycle (Total)
system.cpu.fetch.rateDist::4                    37412      1.59%     79.27% # Number of instructions fetched each cycle (Total)
system.cpu.fetch.rateDist::5                    33953      1.44%     80.72% # Number of instructions fetched each cycle (Total)
system.cpu.fetch.rateDist::6                    33304      1.42%     82.13% # Number of instructions fetched each cycle (Total)
system.cpu.fetch.rateDist::7                    31259      1.33%     83.46% # Number of instructions fetched each cycle (Total)
system.cpu.fetch.rateDist::8                   388944     16.54%    100.00% # Number of instructions fetched each cycle (Total)
system.cpu.fetch.rateDist::overflows                0      0.00%    100.00% # Number of instructions fetched each cycle (Total)
system.cpu.fetch.rateDist::min_value                0                       # Number of instructions fetched each cycle (Total)
system.cpu.fetch.rateDist::max_value                8                       # Number of instructions fetched each cycle (Total)
system.cpu.fetch.rateDist::total              2351951                       # Number of instructions fetched each cycle (Total)
system.cpu.fetch.branchRate                  0.182462                       # Number of branch fetches per cycle
system.cpu.fetch.rate                        0.835894                       # Number of inst fetches per cycle
system.cpu.decode.IdleCycles                   556360                       # Number of cycles decode is idle
system.cpu.decode.BlockedCycles               1199878                       # Number of cycles decode is blocked
system.cpu.decode.RunCycles                    469763                       # Number of cycles decode is running
system.cpu.decode.UnblockCycles                 67126                       # Number of cycles decode is unblocking
system.cpu.decode.SquashCycles                  58824                       # Number of cycles decode is squashing
system.cpu.decode.DecodedInsts                3661620                       # Number of instructions handled by decode
system.cpu.rename.SquashCycles                  58824                       # Number of cycles rename is squashing
system.cpu.rename.IdleCycles                   600719                       # Number of cycles rename is idle
system.cpu.rename.BlockCycles                  546520                       # Number of cycles rename is blocking
system.cpu.rename.serializeStallCycles         372260                       # count of cycles rename stalled for serializing inst
system.cpu.rename.RunCycles                    488444                       # Number of cycles rename is running
system.cpu.rename.UnblockCycles                285184                       # Number of cycles rename is unblocking
system.cpu.rename.RenamedInsts                3425056                       # Number of instructions processed by rename
system.cpu.rename.ROBFullEvents                  3122                       # Number of times rename has blocked due to ROB full
system.cpu.rename.IQFullEvents                  22455                       # Number of times rename has blocked due to IQ full
system.cpu.rename.LQFullEvents                  11025                       # Number of times rename has blocked due to LQ full
system.cpu.rename.SQFullEvents                 231430                       # Number of times rename has blocked due to SQ full
system.cpu.rename.RenamedOperands             3757048                       # Number of destination operands rename has renamed
system.cpu.rename.RenameLookups               8573174                       # Number of register rename lookups that rename has made
system.cpu.rename.int_rename_lookups          5273964                       # Number of integer rename lookups
system.cpu.rename.fp_rename_lookups             13662                       # Number of floating rename lookups
system.cpu.rename.CommittedMaps               1990778                       # Number of HB maps that are committed
system.cpu.rename.UndoneMaps                  1766303                       # Number of HB maps that are undone due to squashing
system.cpu.rename.serializingInsts              14469                       # count of serializing insts renamed
system.cpu.rename.tempSerializingInsts          14520                       # count of temporary serializing insts renamed
system.cpu.rename.skidInsts                    280000                       # count of insts added to the skid buffer
system.cpu.memDep0.insertedLoads               444894                       # Number of loads inserted to the mem dependence unit.
system.cpu.memDep0.insertedStores              284535                       # Number of stores inserted to the mem dependence unit.
system.cpu.memDep0.conflictingLoads             33345                       # Number of conflicting loads.
system.cpu.memDep0.conflictingStores            31671                       # Number of conflicting stores.
system.cpu.iq.iqInstsAdded                    3027841                       # Number of instructions added to the IQ (excludes non-spec)
system.cpu.iq.iqNonSpecInstsAdded               17070                       # Number of non-speculative instructions added to the IQ
system.cpu.iq.iqInstsIssued                   2613106                       # Number of instructions issued
system.cpu.iq.iqSquashedInstsIssued             20751                       # Number of squashed instructions issued
system.cpu.iq.iqSquashedInstsExamined         1260122                       # Number of squashed instructions iterated over during squash; mainly for profiling
system.cpu.iq.iqSquashedOperandsExamined      1824329                       # Number of squashed operands that are examined and possibly removed from graph
system.cpu.iq.iqSquashedNonSpecRemoved           5265                       # Number of squashed non-spec instructions that were removed
system.cpu.iq.issued_per_cycle::samples       2351951                       # Number of insts issued each cycle
system.cpu.iq.issued_per_cycle::mean         1.111038                       # Number of insts issued each cycle
system.cpu.iq.issued_per_cycle::stdev        1.997139                       # Number of insts issued each cycle
system.cpu.iq.issued_per_cycle::underflows            0      0.00%      0.00% # Number of insts issued each cycle
system.cpu.iq.issued_per_cycle::0             1585825     67.43%     67.43% # Number of insts issued each cycle
system.cpu.iq.issued_per_cycle::1              195429      8.31%     75.74% # Number of insts issued each cycle
system.cpu.iq.issued_per_cycle::2              129111      5.49%     81.22% # Number of insts issued each cycle
system.cpu.iq.issued_per_cycle::3              103472      4.40%     85.62% # Number of insts issued each cycle
system.cpu.iq.issued_per_cycle::4               95869      4.08%     89.70% # Number of insts issued each cycle
system.cpu.iq.issued_per_cycle::5               88241      3.75%     93.45% # Number of insts issued each cycle
system.cpu.iq.issued_per_cycle::6               79983      3.40%     96.85% # Number of insts issued each cycle
system.cpu.iq.issued_per_cycle::7               47708      2.03%     98.88% # Number of insts issued each cycle
system.cpu.iq.issued_per_cycle::8               26313      1.12%    100.00% # Number of insts issued each cycle
system.cpu.iq.issued_per_cycle::overflows            0      0.00%    100.00% # Number of insts issued each cycle
system.cpu.iq.issued_per_cycle::min_value            0                       # Number of insts issued each cycle
system.cpu.iq.issued_per_cycle::max_value            8                       # Number of insts issued each cycle
system.cpu.iq.issued_per_cycle::total         2351951                       # Number of insts issued each cycle
system.cpu.iq.fu_full::No_OpClass                   0      0.00%      0.00% # attempts to use FU when none available
system.cpu.iq.fu_full::IntAlu                   26688     67.27%     67.27% # attempts to use FU when none available
system.cpu.iq.fu_full::IntMult                      0      0.00%     67.27% # attempts to use FU when none available
system.cpu.iq.fu_full::IntDiv                       0      0.00%     67.27% # attempts to use FU when none available
system.cpu.iq.fu_full::FloatAdd                    73      0.18%     67.46% # attempts to use FU when none available
system.cpu.iq.fu_full::FloatCmp                     0      0.00%     67.46% # attempts to use FU when none available
system.cpu.iq.fu_full::FloatCvt                     0      0.00%     67.46% # attempts to use FU when none available
system.cpu.iq.fu_full::FloatMult                    0      0.00%     67.46% # attempts to use FU when none available
system.cpu.iq.fu_full::FloatMultAcc                 0      0.00%     67.46% # attempts to use FU when none available
system.cpu.iq.fu_full::FloatDiv                     0      0.00%     67.46% # attempts to use FU when none available
system.cpu.iq.fu_full::FloatMisc                    0      0.00%     67.46% # attempts to use FU when none available
system.cpu.iq.fu_full::FloatSqrt                    0      0.00%     67.46% # attempts to use FU when none available
system.cpu.iq.fu_full::SimdAdd                      0      0.00%     67.46% # attempts to use FU when none available
system.cpu.iq.fu_full::SimdAddAcc                   0      0.00%     67.46% # attempts to use FU when none available
system.cpu.iq.fu_full::SimdAlu                      0      0.00%     67.46% # attempts to use FU when none available
system.cpu.iq.fu_full::SimdCmp                      0      0.00%     67.46% # attempts to use FU when none available
system.cpu.iq.fu_full::SimdCvt                      0      0.00%     67.46% # attempts to use FU when none available
system.cpu.iq.fu_full::SimdMisc                     0      0.00%     67.46% # attempts to use FU when none available
system.cpu.iq.fu_full::SimdMult                     0      0.00%     67.46% # attempts to use FU when none available
system.cpu.iq.fu_full::SimdMultAcc                  0      0.00%     67.46% # attempts to use FU when none available
system.cpu.iq.fu_full::SimdShift                    0      0.00%     67.46% # attempts to use FU when none available
system.cpu.iq.fu_full::SimdShiftAcc                 0      0.00%     67.46% # attempts to use FU when none available
system.cpu.iq.fu_full::SimdSqrt                     0      0.00%     67.46% # attempts to use FU when none available
system.cpu.iq.fu_full::SimdFloatAdd                 0      0.00%     67.46% # attempts to use FU when none available
system.cpu.iq.fu_full::SimdFloatAlu                 0      0.00%     67.46% # attempts to use FU when none available
system.cpu.iq.fu_full::SimdFloatCmp                 0      0.00%     67.46% # attempts to use FU when none available
system.cpu.iq.fu_full::SimdFloatCvt                 0      0.00%     67.46% # attempts to use FU when none available
system.cpu.iq.fu_full::SimdFloatDiv                 0      0.00%     67.46% # attempts to use FU when none available
system.cpu.iq.fu_full::SimdFloatMisc                0      0.00%     67.46% # attempts to use FU when none available
system.cpu.iq.fu_full::SimdFloatMult                0      0.00%     67.46% # attempts to use FU when none available
system.cpu.iq.fu_full::SimdFloatMultAcc             0      0.00%     67.46% # attempts to use FU when none available
system.cpu.iq.fu_full::SimdFloatSqrt                0      0.00%     67.46% # attempts to use FU when none available
system.cpu.iq.fu_full::MemRead                   9239     23.29%     90.75% # attempts to use FU when none available
system.cpu.iq.fu_full::MemWrite                  3616      9.11%     99.86% # attempts to use FU when none available
system.cpu.iq.fu_full::FloatMemRead                26      0.07%     99.93% # attempts to use FU when none available
system.cpu.iq.fu_full::FloatMemWrite               29      0.07%    100.00% # attempts to use FU when none available
system.cpu.iq.fu_full::IprAccess                    0      0.00%    100.00% # attempts to use FU when none available
system.cpu.iq.fu_full::InstPrefetch                 0      0.00%    100.00% # attempts to use FU when none available
system.cpu.iq.FU_type_0::No_OpClass             35963      1.38%      1.38% # Type of FU issued
system.cpu.iq.FU_type_0::IntAlu               1940839     74.27%     75.65% # Type of FU issued
system.cpu.iq.FU_type_0::IntMult                 1483      0.06%     75.71% # Type of FU issued
system.cpu.iq.FU_type_0::IntDiv                  1764      0.07%     75.77% # Type of FU issued
system.cpu.iq.FU_type_0::FloatAdd                3353      0.13%     75.90% # Type of FU issued
system.cpu.iq.FU_type_0::FloatCmp                   0      0.00%     75.90% # Type of FU issued
system.cpu.iq.FU_type_0::FloatCvt                   4      0.00%     75.90% # Type of FU issued
system.cpu.iq.FU_type_0::FloatMult                  0      0.00%     75.90% # Type of FU issued
system.cpu.iq.FU_type_0::FloatMultAcc               0      0.00%     75.90% # Type of FU issued
system.cpu.iq.FU_type_0::FloatDiv                   0      0.00%     75.90% # Type of FU issued
system.cpu.iq.FU_type_0::FloatMisc                  0      0.00%     75.90% # Type of FU issued
system.cpu.iq.FU_type_0::FloatSqrt                  0      0.00%     75.90% # Type of FU issued
system.cpu.iq.FU_type_0::SimdAdd                    0      0.00%     75.90% # Type of FU issued
system.cpu.iq.FU_type_0::SimdAddAcc                 0      0.00%     75.90% # Type of FU issued
system.cpu.iq.FU_type_0::SimdAlu                    0      0.00%     75.90% # Type of FU issued
system.cpu.iq.FU_type_0::SimdCmp                    0      0.00%     75.90% # Type of FU issued
system.cpu.iq.FU_type_0::SimdCvt                    0      0.00%     75.90% # Type of FU issued
system.cpu.iq.FU_type_0::SimdMisc                   0      0.00%     75.90% # Type of FU issued
system.cpu.iq.FU_type_0::SimdMult                   0      0.00%     75.90% # Type of FU issued
system.cpu.iq.FU_type_0::SimdMultAcc                0      0.00%     75.90% # Type of FU issued
system.cpu.iq.FU_type_0::SimdShift                  0      0.00%     75.90% # Type of FU issued
system.cpu.iq.FU_type_0::SimdShiftAcc               0      0.00%     75.90% # Type of FU issued
system.cpu.iq.FU_type_0::SimdSqrt                   0      0.00%     75.90% # Type of FU issued
system.cpu.iq.FU_type_0::SimdFloatAdd               0      0.00%     75.90% # Type of FU issued
system.cpu.iq.FU_type_0::SimdFloatAlu               0      0.00%     75.90% # Type of FU issued
system.cpu.iq.FU_type_0::SimdFloatCmp               0      0.00%     75.90% # Type of FU issued
system.cpu.iq.FU_type_0::SimdFloatCvt               0      0.00%     75.90% # Type of FU issued
system.cpu.iq.FU_type_0::SimdFloatDiv               0      0.00%     75.90% # Type of FU issued
system.cpu.iq.FU_type_0::SimdFloatMisc              0      0.00%     75.90% # Type of FU issued
system.cpu.iq.FU_type_0::SimdFloatMult              0      0.00%     75.90% # Type of FU issued
system.cpu.iq.FU_type_0::SimdFloatMultAcc            0      0.00%     75.90% # Type of FU issued
system.cpu.iq.FU_type_0::SimdFloatSqrt              0      0.00%     75.90% # Type of FU issued
system.cpu.iq.FU_type_0::MemRead               385478     14.75%     90.65% # Type of FU issued
system.cpu.iq.FU_type_0::MemWrite              242449      9.28%     99.93% # Type of FU issued
system.cpu.iq.FU_type_0::FloatMemRead            1631      0.06%     99.99% # Type of FU issued
system.cpu.iq.FU_type_0::FloatMemWrite            142      0.01%    100.00% # Type of FU issued
system.cpu.iq.FU_type_0::IprAccess                  0      0.00%    100.00% # Type of FU issued
system.cpu.iq.FU_type_0::InstPrefetch               0      0.00%    100.00% # Type of FU issued
system.cpu.iq.FU_type_0::total                2613106                       # Type of FU issued
system.cpu.iq.rate                           1.045637                       # Inst issue rate
system.cpu.iq.fu_busy_cnt                       39671                       # FU busy when requested
system.cpu.iq.fu_busy_rate                   0.015182                       # FU busy rate (busy events/executed inst)
system.cpu.iq.int_inst_queue_reads            7627634                       # Number of integer instruction queue reads
system.cpu.iq.int_inst_queue_writes           4293154                       # Number of integer instruction queue writes
system.cpu.iq.int_inst_queue_wakeup_accesses      2439741                       # Number of integer instruction queue wakeup accesses
system.cpu.iq.fp_inst_queue_reads               10951                       # Number of floating instruction queue reads
system.cpu.iq.fp_inst_queue_writes              13120                       # Number of floating instruction queue writes
system.cpu.iq.fp_inst_queue_wakeup_accesses         4563                       # Number of floating instruction queue wakeup accesses
system.cpu.iq.int_alu_accesses                2611380                       # Number of integer alu accesses
system.cpu.iq.fp_alu_accesses                    5434                       # Number of floating point alu accesses
system.cpu.iew.lsq.thread0.forwLoads            31801                       # Number of loads that had data forwarded from stores
system.cpu.iew.lsq.thread0.invAddrLoads             0                       # Number of loads ignored due to an invalid address
system.cpu.iew.lsq.thread0.squashedLoads       183167                       # Number of loads squashed
system.cpu.iew.lsq.thread0.ignoredResponses          645                       # Number of memory responses ignored because the instruction is squashed
system.cpu.iew.lsq.thread0.memOrderViolation         1273                       # Number of memory ordering violations
system.cpu.iew.lsq.thread0.squashedStores        91209                       # Number of stores squashed
system.cpu.iew.lsq.thread0.invAddrSwpfs             0                       # Number of software prefetches ignored due to an invalid address
system.cpu.iew.lsq.thread0.blockedLoads             0                       # Number of blocked loads due to partial load-store forwarding
system.cpu.iew.lsq.thread0.rescheduledLoads         1323                       # Number of loads that were rescheduled
system.cpu.iew.lsq.thread0.cacheBlocked          2174                       # Number of times an access to memory failed due to the cache being blocked
system.cpu.iew.iewIdleCycles                        0                       # Number of cycles IEW is idle
system.cpu.iew.iewSquashCycles                  58824                       # Number of cycles IEW is squashing
system.cpu.iew.iewBlockCycles                  299120                       # Number of cycles IEW is blocking
system.cpu.iew.iewUnblockCycles                138314                       # Number of cycles IEW is unblocking
system.cpu.iew.iewDispatchedInsts             3044914                       # Number of instructions dispatched to IQ
system.cpu.iew.iewDispSquashedInsts              5149                       # Number of squashed instructions skipped by dispatch
system.cpu.iew.iewDispLoadInsts                444894                       # Number of dispatched load instructions
system.cpu.iew.iewDispStoreInsts               284535                       # Number of dispatched store instructions
system.cpu.iew.iewDispNonSpecInsts              15495                       # Number of dispatched non-speculative instructions
system.cpu.iew.iewIQFullEvents                   1046                       # Number of times the IQ has become full, causing a stall
system.cpu.iew.iewLSQFullEvents                136932                       # Number of times the LSQ has become full, causing a stall
system.cpu.iew.memOrderViolationEvents           1273                       # Number of memory order violations
system.cpu.iew.predictedTakenIncorrect          16330                       # Number of branches that were predicted taken incorrectly
system.cpu.iew.predictedNotTakenIncorrect        56612                       # Number of branches that were predicted not taken incorrectly
system.cpu.iew.branchMispredicts                72942                       # Number of branch mispredicts detected at execute
system.cpu.iew.iewExecutedInsts               2492495                       # Number of executed instructions
system.cpu.iew.iewExecLoadInsts                356666                       # Number of load instructions executed
system.cpu.iew.iewExecSquashedInsts            109882                       # Number of squashed instructions skipped in execute
system.cpu.iew.exec_swp                             0                       # number of swp insts executed
system.cpu.iew.exec_nop                             3                       # number of nop insts executed
system.cpu.iew.exec_refs                       585832                       # number of memory reference insts executed
system.cpu.iew.exec_branches                   247390                       # Number of branches executed
system.cpu.iew.exec_stores                     229166                       # Number of stores executed
system.cpu.iew.exec_rate                     0.997375                       # Inst execution rate
system.cpu.iew.wb_sent                        2463062                       # cumulative count of insts sent to commit
system.cpu.iew.wb_count                       2444304                       # cumulative count of insts written-back
system.cpu.iew.wb_producers                   1609023                       # num instructions producing a value
system.cpu.iew.wb_consumers                   2576533                       # num instructions consuming a value
system.cpu.iew.wb_rate                       0.978091                       # insts written-back per cycle
system.cpu.iew.wb_fanout                     0.624492                       # average fanout of values written-back
system.cpu.commit.commitSquashedInsts         1258879                       # The number of squashed insts skipped by commit
system.cpu.commit.commitNonSpecStalls           11805                       # The number of times commit has been forced to stall to communicate backwards
system.cpu.commit.branchMispredicts             56266                       # The number of times a branch was mispredicted
system.cpu.commit.committed_per_cycle::samples      2143921                       # Number of insts commited each cycle
system.cpu.commit.committed_per_cycle::mean     0.832499                       # Number of insts commited each cycle
system.cpu.commit.committed_per_cycle::stdev     1.916516                       # Number of insts commited each cycle
system.cpu.commit.committed_per_cycle::underflows            0      0.00%      0.00% # Number of insts commited each cycle
system.cpu.commit.committed_per_cycle::0      1605039     74.86%     74.86% # Number of insts commited each cycle
system.cpu.commit.committed_per_cycle::1       192596      8.98%     83.85% # Number of insts commited each cycle
system.cpu.commit.committed_per_cycle::2        78348      3.65%     87.50% # Number of insts commited each cycle
system.cpu.commit.committed_per_cycle::3        79027      3.69%     91.19% # Number of insts commited each cycle
system.cpu.commit.committed_per_cycle::4        45589      2.13%     93.31% # Number of insts commited each cycle
system.cpu.commit.committed_per_cycle::5        26954      1.26%     94.57% # Number of insts commited each cycle
system.cpu.commit.committed_per_cycle::6        18476      0.86%     95.43% # Number of insts commited each cycle
system.cpu.commit.committed_per_cycle::7        12679      0.59%     96.03% # Number of insts commited each cycle
system.cpu.commit.committed_per_cycle::8        85213      3.97%    100.00% # Number of insts commited each cycle
system.cpu.commit.committed_per_cycle::overflows            0      0.00%    100.00% # Number of insts commited each cycle
system.cpu.commit.committed_per_cycle::min_value            0                       # Number of insts commited each cycle
system.cpu.commit.committed_per_cycle::max_value            8                       # Number of insts commited each cycle
system.cpu.commit.committed_per_cycle::total      2143921                       # Number of insts commited each cycle
system.cpu.commit.committedInsts               954039                       # Number of instructions committed
system.cpu.commit.committedOps                1784812                       # Number of ops (including micro ops) committed
system.cpu.commit.swp_count                         0                       # Number of s/w prefetches committed
system.cpu.commit.refs                         455062                       # Number of memory references committed
system.cpu.commit.loads                        261735                       # Number of loads committed
system.cpu.commit.membars                        1166                       # Number of memory barriers committed
system.cpu.commit.branches                     190941                       # Number of branches committed
system.cpu.commit.vec_insts                         0                       # Number of committed Vector instructions.
system.cpu.commit.fp_insts                       2440                       # Number of committed floating point instructions.
system.cpu.commit.int_insts                   1766944                       # Number of committed integer instructions.
system.cpu.commit.function_calls                20107                       # Number of function calls committed.
system.cpu.commit.op_class_0::No_OpClass        14818      0.83%      0.83% # Class of committed instruction
system.cpu.commit.op_class_0::IntAlu          1310150     73.41%     74.24% # Class of committed instruction
system.cpu.commit.op_class_0::IntMult            1288      0.07%     74.31% # Class of committed instruction
system.cpu.commit.op_class_0::IntDiv             1648      0.09%     74.40% # Class of committed instruction
system.cpu.commit.op_class_0::FloatAdd           1846      0.10%     74.50% # Class of committed instruction
system.cpu.commit.op_class_0::FloatCmp              0      0.00%     74.50% # Class of committed instruction
system.cpu.commit.op_class_0::FloatCvt              0      0.00%     74.50% # Class of committed instruction
system.cpu.commit.op_class_0::FloatMult             0      0.00%     74.50% # Class of committed instruction
system.cpu.commit.op_class_0::FloatMultAcc            0      0.00%     74.50% # Class of committed instruction
system.cpu.commit.op_class_0::FloatDiv              0      0.00%     74.50% # Class of committed instruction
system.cpu.commit.op_class_0::FloatMisc             0      0.00%     74.50% # Class of committed instruction
system.cpu.commit.op_class_0::FloatSqrt             0      0.00%     74.50% # Class of committed instruction
system.cpu.commit.op_class_0::SimdAdd               0      0.00%     74.50% # Class of committed instruction
system.cpu.commit.op_class_0::SimdAddAcc            0      0.00%     74.50% # Class of committed instruction
system.cpu.commit.op_class_0::SimdAlu               0      0.00%     74.50% # Class of committed instruction
system.cpu.commit.op_class_0::SimdCmp               0      0.00%     74.50% # Class of committed instruction
system.cpu.commit.op_class_0::SimdCvt               0      0.00%     74.50% # Class of committed instruction
system.cpu.commit.op_class_0::SimdMisc              0      0.00%     74.50% # Class of committed instruction
system.cpu.commit.op_class_0::SimdMult              0      0.00%     74.50% # Class of committed instruction
system.cpu.commit.op_class_0::SimdMultAcc            0      0.00%     74.50% # Class of committed instruction
system.cpu.commit.op_class_0::SimdShift             0      0.00%     74.50% # Class of committed instruction
system.cpu.commit.op_class_0::SimdShiftAcc            0      0.00%     74.50% # Class of committed instruction
system.cpu.commit.op_class_0::SimdSqrt              0      0.00%     74.50% # Class of committed instruction
system.cpu.commit.op_class_0::SimdFloatAdd            0      0.00%     74.50% # Class of committed instruction
system.cpu.commit.op_class_0::SimdFloatAlu            0      0.00%     74.50% # Class of committed instruction
system.cpu.commit.op_class_0::SimdFloatCmp            0      0.00%     74.50% # Class of committed instruction
system.cpu.commit.op_class_0::SimdFloatCvt            0      0.00%     74.50% # Class of committed instruction
system.cpu.commit.op_class_0::SimdFloatDiv            0      0.00%     74.50% # Class of committed instruction
system.cpu.commit.op_class_0::SimdFloatMisc            0      0.00%     74.50% # Class of committed instruction
system.cpu.commit.op_class_0::SimdFloatMult            0      0.00%     74.50% # Class of committed instruction
system.cpu.commit.op_class_0::SimdFloatMultAcc            0      0.00%     74.50% # Class of committed instruction
system.cpu.commit.op_class_0::SimdFloatSqrt            0      0.00%     74.50% # Class of committed instruction
system.cpu.commit.op_class_0::MemRead          261275     14.64%     89.14% # Class of committed instruction
system.cpu.commit.op_class_0::MemWrite         193327     10.83%     99.97% # Class of committed instruction
system.cpu.commit.op_class_0::FloatMemRead          460      0.03%    100.00% # Class of committed instruction
system.cpu.commit.op_class_0::FloatMemWrite            0      0.00%    100.00% # Class of committed instruction
system.cpu.commit.op_class_0::IprAccess             0      0.00%    100.00% # Class of committed instruction
system.cpu.commit.op_class_0::InstPrefetch            0      0.00%    100.00% # Class of committed instruction
system.cpu.commit.op_class_0::total           1784812                       # Class of committed instruction
system.cpu.commit.bw_lim_events                 85213                       # number cycles where commit BW limit reached
system.cpu.rob.rob_reads                      5096818                       # The number of ROB reads
system.cpu.rob.rob_writes                     6299350                       # The number of ROB writes
system.cpu.timesIdled                            7372                       # Number of times that the entire CPU went into an idle state and unscheduled itself
system.cpu.idleCycles                          147105                       # Total number of cycles that the CPU has spent unscheduled due to idling
system.cpu.committedInsts                      954039                       # Number of Instructions Simulated
system.cpu.committedOps                       1784812                       # Number of Ops (including micro ops) Simulated
system.cpu.cpi                               2.619448                       # CPI: Cycles Per Instruction
system.cpu.cpi_total                         2.619448                       # CPI: Total CPI of All Threads
system.cpu.ipc                               0.381760                       # IPC: Instructions Per Cycle
system.cpu.ipc_total                         0.381760                       # IPC: Total IPC of All Threads
system.cpu.int_regfile_reads                  3671427                       # number of integer regfile reads
system.cpu.int_regfile_writes                 1948735                       # number of integer regfile writes
system.cpu.fp_regfile_reads                      7261                       # number of floating regfile reads
system.cpu.fp_regfile_writes                     3848                       # number of floating regfile writes
system.cpu.cc_regfile_reads                   1111560                       # number of cc regfile reads
system.cpu.cc_regfile_writes                   717348                       # number of cc regfile writes
system.cpu.misc_regfile_reads                 1130838                       # number of misc regfile reads
system.cpu.misc_regfile_writes                  13179                       # number of misc regfile writes
system.cpu.dcache.tags.pwrStateResidencyTicks::UNDEFINED 4803296042500                       # Cumulative time (in ticks) in various power states
system.cpu.dcache.tags.replacements             21924                       # number of replacements
system.cpu.dcache.tags.tagsinuse                 1024                       # Cycle average of tags in use
system.cpu.dcache.tags.total_refs              487803                       # Total number of references to valid blocks.
system.cpu.dcache.tags.sampled_refs             21924                       # Sample count of references to valid blocks.
system.cpu.dcache.tags.avg_refs             22.249726                       # Average number of references to valid blocks.
system.cpu.dcache.tags.warmup_cycle                 0                       # Cycle when the warmup percentage was hit.
system.cpu.dcache.tags.occ_blocks::cpu.data         1024                       # Average occupied blocks per requestor
system.cpu.dcache.tags.occ_percent::cpu.data            1                       # Average percentage of cache occupancy
system.cpu.dcache.tags.occ_percent::total            1                       # Average percentage of cache occupancy
system.cpu.dcache.tags.occ_task_id_blocks::1024         1024                       # Occupied blocks per task id
system.cpu.dcache.tags.age_task_id_blocks_1024::0           54                       # Occupied blocks per task id
system.cpu.dcache.tags.age_task_id_blocks_1024::1          723                       # Occupied blocks per task id
system.cpu.dcache.tags.age_task_id_blocks_1024::2          247                       # Occupied blocks per task id
system.cpu.dcache.tags.occ_task_id_percent::1024            1                       # Percentage of cache occupancy per task id
system.cpu.dcache.tags.tag_accesses           1050484                       # Number of tag accesses
system.cpu.dcache.tags.data_accesses          1050484                       # Number of data accesses
system.cpu.dcache.pwrStateResidencyTicks::UNDEFINED 4803296042500                       # Cumulative time (in ticks) in various power states
system.cpu.dcache.ReadReq_hits::cpu.data       293627                       # number of ReadReq hits
system.cpu.dcache.ReadReq_hits::total          293627                       # number of ReadReq hits
system.cpu.dcache.WriteReq_hits::cpu.data       184012                       # number of WriteReq hits
system.cpu.dcache.WriteReq_hits::total         184012                       # number of WriteReq hits
system.cpu.dcache.SoftPFReq_hits::cpu.data          559                       # number of SoftPFReq hits
system.cpu.dcache.SoftPFReq_hits::total           559                       # number of SoftPFReq hits
system.cpu.dcache.demand_hits::cpu.data        477639                       # number of demand (read+write) hits
system.cpu.dcache.demand_hits::total           477639                       # number of demand (read+write) hits
system.cpu.dcache.overall_hits::cpu.data       478198                       # number of overall hits
system.cpu.dcache.overall_hits::total          478198                       # number of overall hits
system.cpu.dcache.ReadReq_misses::cpu.data        23782                       # number of ReadReq misses
system.cpu.dcache.ReadReq_misses::total         23782                       # number of ReadReq misses
system.cpu.dcache.WriteReq_misses::cpu.data         9253                       # number of WriteReq misses
system.cpu.dcache.WriteReq_misses::total         9253                       # number of WriteReq misses
system.cpu.dcache.SoftPFReq_misses::cpu.data         3047                       # number of SoftPFReq misses
system.cpu.dcache.SoftPFReq_misses::total         3047                       # number of SoftPFReq misses
system.cpu.dcache.demand_misses::cpu.data        33035                       # number of demand (read+write) misses
system.cpu.dcache.demand_misses::total          33035                       # number of demand (read+write) misses
system.cpu.dcache.overall_misses::cpu.data        36082                       # number of overall misses
system.cpu.dcache.overall_misses::total         36082                       # number of overall misses
system.cpu.dcache.ReadReq_miss_latency::cpu.data    296754000                       # number of ReadReq miss cycles
system.cpu.dcache.ReadReq_miss_latency::total    296754000                       # number of ReadReq miss cycles
system.cpu.dcache.WriteReq_miss_latency::cpu.data    163099490                       # number of WriteReq miss cycles
system.cpu.dcache.WriteReq_miss_latency::total    163099490                       # number of WriteReq miss cycles
system.cpu.dcache.demand_miss_latency::cpu.data    459853490                       # number of demand (read+write) miss cycles
system.cpu.dcache.demand_miss_latency::total    459853490                       # number of demand (read+write) miss cycles
system.cpu.dcache.overall_miss_latency::cpu.data    459853490                       # number of overall miss cycles
system.cpu.dcache.overall_miss_latency::total    459853490                       # number of overall miss cycles
system.cpu.dcache.ReadReq_accesses::cpu.data       317409                       # number of ReadReq accesses(hits+misses)
system.cpu.dcache.ReadReq_accesses::total       317409                       # number of ReadReq accesses(hits+misses)
system.cpu.dcache.WriteReq_accesses::cpu.data       193265                       # number of WriteReq accesses(hits+misses)
[...]
system.l2cache.demand_mshr_misses::total         1536                       # number of demand (read+write) MSHR misses
system.l2cache.overall_mshr_misses::cpu.inst          501                       # number of overall MSHR misses
system.l2cache.overall_mshr_misses::cpu.data         1035                       # number of overall MSHR misses
system.l2cache.overall_mshr_misses::total         1536                       # number of overall MSHR misses
system.l2cache.ReadReq_mshr_uncacheable::cpu.data          365                       # number of ReadReq MSHR uncacheable
system.l2cache.ReadReq_mshr_uncacheable::total          365                       # number of ReadReq MSHR uncacheable
system.l2cache.WriteReq_mshr_uncacheable::cpu.data          135                       # number of WriteReq MSHR uncacheable
system.l2cache.WriteReq_mshr_uncacheable::total          135                       # number of WriteReq MSHR uncacheable
system.l2cache.overall_mshr_uncacheable_misses::cpu.data          500                       # number of overall MSHR uncacheable misses
system.l2cache.overall_mshr_uncacheable_misses::total          500                       # number of overall MSHR uncacheable misses
system.l2cache.UpgradeReq_mshr_miss_latency::cpu.data     12515999                       # number of UpgradeReq MSHR miss cycles
system.l2cache.UpgradeReq_mshr_miss_latency::total     12515999                       # number of UpgradeReq MSHR miss cycles
system.l2cache.ReadExReq_mshr_miss_latency::cpu.data     45102000                       # number of ReadExReq MSHR miss cycles
system.l2cache.ReadExReq_mshr_miss_latency::total     45102000                       # number of ReadExReq MSHR miss cycles
system.l2cache.ReadSharedReq_mshr_miss_latency::cpu.inst     41420500                       # number of ReadSharedReq MSHR miss cycles
system.l2cache.ReadSharedReq_mshr_miss_latency::cpu.data     30692000                       # number of ReadSharedReq MSHR miss cycles
system.l2cache.ReadSharedReq_mshr_miss_latency::total     72112500                       # number of ReadSharedReq MSHR miss cycles
system.l2cache.demand_mshr_miss_latency::cpu.inst     41420500                       # number of demand (read+write) MSHR miss cycles
system.l2cache.demand_mshr_miss_latency::cpu.data     75794000                       # number of demand (read+write) MSHR miss cycles
system.l2cache.demand_mshr_miss_latency::total    117214500                       # number of demand (read+write) MSHR miss cycles
system.l2cache.overall_mshr_miss_latency::cpu.inst     41420500                       # number of overall MSHR miss cycles
system.l2cache.overall_mshr_miss_latency::cpu.data     75794000                       # number of overall MSHR miss cycles
system.l2cache.overall_mshr_miss_latency::total    117214500                       # number of overall MSHR miss cycles
system.l2cache.ReadReq_mshr_uncacheable_latency::cpu.data     79752500                       # number of ReadReq MSHR uncacheable cycles
system.l2cache.ReadReq_mshr_uncacheable_latency::total     79752500                       # number of ReadReq MSHR uncacheable cycles
system.l2cache.overall_mshr_uncacheable_latency::cpu.data     79752500                       # number of overall MSHR uncacheable cycles
system.l2cache.overall_mshr_uncacheable_latency::total     79752500                       # number of overall MSHR uncacheable cycles
system.l2cache.UpgradeReq_mshr_miss_rate::cpu.data     0.933911                       # mshr miss rate for UpgradeReq accesses
system.l2cache.UpgradeReq_mshr_miss_rate::total     0.933911                       # mshr miss rate for UpgradeReq accesses
system.l2cache.ReadExReq_mshr_miss_rate::cpu.data     0.055616                       # mshr miss rate for ReadExReq accesses
system.l2cache.ReadExReq_mshr_miss_rate::total     0.055616                       # mshr miss rate for ReadExReq accesses
system.l2cache.ReadSharedReq_mshr_miss_rate::cpu.inst     0.015221                       # mshr miss rate for ReadSharedReq accesses
system.l2cache.ReadSharedReq_mshr_miss_rate::cpu.data     0.012686                       # mshr miss rate for ReadSharedReq accesses
system.l2cache.ReadSharedReq_mshr_miss_rate::total     0.014232                       # mshr miss rate for ReadSharedReq accesses
system.l2cache.demand_mshr_miss_rate::cpu.inst     0.015221                       # mshr miss rate for demand accesses
system.l2cache.demand_mshr_miss_rate::cpu.data     0.029694                       # mshr miss rate for demand accesses
system.l2cache.demand_mshr_miss_rate::total     0.022665                       # mshr miss rate for demand accesses
system.l2cache.overall_mshr_miss_rate::cpu.inst     0.015221                       # mshr miss rate for overall accesses
system.l2cache.overall_mshr_miss_rate::cpu.data     0.029694                       # mshr miss rate for overall accesses
system.l2cache.overall_mshr_miss_rate::total     0.022665                       # mshr miss rate for overall accesses
system.l2cache.UpgradeReq_avg_mshr_miss_latency::cpu.data 14519.720418                       # average UpgradeReq mshr miss latency
system.l2cache.UpgradeReq_avg_mshr_miss_latency::total 14519.720418                       # average UpgradeReq mshr miss latency
system.l2cache.ReadExReq_avg_mshr_miss_latency::cpu.data 58726.562500                       # average ReadExReq mshr miss latency
system.l2cache.ReadExReq_avg_mshr_miss_latency::total 58726.562500                       # average ReadExReq mshr miss latency
system.l2cache.ReadSharedReq_avg_mshr_miss_latency::cpu.inst 82675.648703                       # average ReadSharedReq mshr miss latency
system.l2cache.ReadSharedReq_avg_mshr_miss_latency::cpu.data 114951.310861                       # average ReadSharedReq mshr miss latency
system.l2cache.ReadSharedReq_avg_mshr_miss_latency::total 93896.484375                       # average ReadSharedReq mshr miss latency
system.l2cache.demand_avg_mshr_miss_latency::cpu.inst 82675.648703                       # average overall mshr miss latency
system.l2cache.demand_avg_mshr_miss_latency::cpu.data 73230.917874                       # average overall mshr miss latency
system.l2cache.demand_avg_mshr_miss_latency::total 76311.523438                       # average overall mshr miss latency
system.l2cache.overall_avg_mshr_miss_latency::cpu.inst 82675.648703                       # average overall mshr miss latency
system.l2cache.overall_avg_mshr_miss_latency::cpu.data 73230.917874                       # average overall mshr miss latency
system.l2cache.overall_avg_mshr_miss_latency::total 76311.523438                       # average overall mshr miss latency
system.l2cache.ReadReq_avg_mshr_uncacheable_latency::cpu.data       218500                       # average ReadReq mshr uncacheable latency
system.l2cache.ReadReq_avg_mshr_uncacheable_latency::total       218500                       # average ReadReq mshr uncacheable latency
system.l2cache.overall_avg_mshr_uncacheable_latency::cpu.data       159505                       # average overall mshr uncacheable latency
system.l2cache.overall_avg_mshr_uncacheable_latency::total       159505                       # average overall mshr uncacheable latency
system.membus.snoop_filter.tot_requests         37023                       # Total number of requests made to the snoop filter.
system.membus.snoop_filter.hit_single_requests        35619                       # Number of requests hitting in the snoop filter with a single holder of the requested data.
system.membus.snoop_filter.hit_multi_requests            0                       # Number of requests hitting in the snoop filter with multiple (>1) holders of the requested data.
system.membus.snoop_filter.tot_snoops               0                       # Total number of snoops made to the snoop filter.
system.membus.snoop_filter.hit_single_snoops            0                       # Number of snoops hitting in the snoop filter with a single holder of the requested data.
system.membus.snoop_filter.hit_multi_snoops            0                       # Number of snoops hitting in the snoop filter with multiple (>1) holders of the requested data.
system.membus.pwrStateResidencyTicks::UNDEFINED 4803926500000                       # Cumulative time (in ticks) in various power states
system.membus.trans_dist::ReadReq               36750                       # Transaction distribution
system.membus.trans_dist::ReadResp              37518                       # Transaction distribution
system.membus.trans_dist::WriteReq                135                       # Transaction distribution
system.membus.trans_dist::WriteResp               135                       # Transaction distribution
system.membus.trans_dist::WritebackDirty          606                       # Transaction distribution
system.membus.trans_dist::CleanEvict              708                       # Transaction distribution
system.membus.trans_dist::UpgradeReq              994                       # Transaction distribution
system.membus.trans_dist::ReadExReq               636                       # Transaction distribution
system.membus.trans_dist::ReadExResp              636                       # Transaction distribution
system.membus.trans_dist::ReadSharedReq           768                       # Transaction distribution
system.membus.trans_dist::MessageReq              123                       # Transaction distribution
system.membus.trans_dist::MessageResp             123                       # Transaction distribution
system.membus.pkt_count_system.apicbridge.master::system.cpu.interrupts.int_slave          246                       # Packet count per connected master and slave (bytes)
system.membus.pkt_count_system.apicbridge.master::total          246                       # Packet count per connected master and slave (bytes)
system.membus.pkt_count_system.l2cache.mem_side::system.bridge.slave          984                       # Packet count per connected master and slave (bytes)
system.membus.pkt_count_system.l2cache.mem_side::system.mem_cntrl.port         5116                       # Packet count per connected master and slave (bytes)
system.membus.pkt_count_system.l2cache.mem_side::system.cpu.interrupts.pio           16                       # Packet count per connected master and slave (bytes)
system.membus.pkt_count_system.l2cache.mem_side::total         6116                       # Packet count per connected master and slave (bytes)
system.membus.pkt_count_system.cpu.itb.walker.port::system.mem_cntrl.port         8531                       # Packet count per connected master and slave (bytes)
system.membus.pkt_count_system.cpu.itb.walker.port::total         8531                       # Packet count per connected master and slave (bytes)
system.membus.pkt_count_system.cpu.dtb.walker.port::system.mem_cntrl.port        31026                       # Packet count per connected master and slave (bytes)
system.membus.pkt_count_system.cpu.dtb.walker.port::total        31026                       # Packet count per connected master and slave (bytes)
system.membus.pkt_count::total                  45919                       # Packet count per connected master and slave (bytes)
system.membus.pkt_size_system.apicbridge.master::system.cpu.interrupts.int_slave          492                       # Cumulative packet size per connected master and slave (bytes)
system.membus.pkt_size_system.apicbridge.master::total          492                       # Cumulative packet size per connected master and slave (bytes)
system.membus.pkt_size_system.l2cache.mem_side::system.bridge.slave          492                       # Cumulative packet size per connected master and slave (bytes)
system.membus.pkt_size_system.l2cache.mem_side::system.mem_cntrl.port       128640                       # Cumulative packet size per connected master and slave (bytes)
system.membus.pkt_size_system.l2cache.mem_side::system.cpu.interrupts.pio           32                       # Cumulative packet size per connected master and slave (bytes)
system.membus.pkt_size_system.l2cache.mem_side::total       129164                       # Cumulative packet size per connected master and slave (bytes)
system.membus.pkt_size_system.cpu.itb.walker.port::system.mem_cntrl.port          544                       # Cumulative packet size per connected master and slave (bytes)
system.membus.pkt_size_system.cpu.itb.walker.port::total          544                       # Cumulative packet size per connected master and slave (bytes)
system.membus.pkt_size_system.cpu.dtb.walker.port::system.mem_cntrl.port        24832                       # Cumulative packet size per connected master and slave (bytes)
system.membus.pkt_size_system.cpu.dtb.walker.port::total        24832                       # Cumulative packet size per connected master and slave (bytes)
system.membus.pkt_size::total                  155032                       # Cumulative packet size per connected master and slave (bytes)
system.membus.snoops                            33213                       # Total snoops (count)
system.membus.snoopTraffic                     265704                       # Total snoop traffic (bytes)
system.membus.snoop_fanout::samples             39406                       # Request fanout histogram
system.membus.snoop_fanout::mean             0.845328                       # Request fanout histogram
system.membus.snoop_fanout::stdev            0.361596                       # Request fanout histogram
system.membus.snoop_fanout::underflows              0      0.00%      0.00% # Request fanout histogram
system.membus.snoop_fanout::0                    6095     15.47%     15.47% # Request fanout histogram
system.membus.snoop_fanout::1                   33311     84.53%    100.00% # Request fanout histogram
system.membus.snoop_fanout::2                       0      0.00%    100.00% # Request fanout histogram
system.membus.snoop_fanout::overflows               0      0.00%    100.00% # Request fanout histogram
system.membus.snoop_fanout::min_value               0                       # Request fanout histogram
system.membus.snoop_fanout::max_value               1                       # Request fanout histogram
system.membus.snoop_fanout::total               39406                       # Request fanout histogram
system.membus.reqLayer0.occupancy              309500                       # Layer occupancy (ticks)
system.membus.reqLayer0.utilization               0.0                       # Layer utilization (%)
system.membus.reqLayer1.occupancy            21261498                       # Layer occupancy (ticks)
system.membus.reqLayer1.utilization               1.1                       # Layer utilization (%)
system.membus.reqLayer2.occupancy                8000                       # Layer occupancy (ticks)
system.membus.reqLayer2.utilization               0.0                       # Layer utilization (%)
system.membus.reqLayer3.occupancy              123000                       # Layer occupancy (ticks)
system.membus.reqLayer3.utilization               0.0                       # Layer utilization (%)
system.membus.respLayer1.occupancy              61500                       # Layer occupancy (ticks)
system.membus.respLayer1.utilization              0.0                       # Layer utilization (%)
system.membus.respLayer3.occupancy            4202500                       # Layer occupancy (ticks)
system.membus.respLayer3.utilization              0.2                       # Layer utilization (%)
system.membus.respLayer4.occupancy            8605485                       # Layer occupancy (ticks)
system.membus.respLayer4.utilization              0.5                       # Layer utilization (%)
system.membus.respLayer5.occupancy           28603158                       # Layer occupancy (ticks)
system.membus.respLayer5.utilization              1.5                       # Layer utilization (%)
system.membus.badaddr_responder.pwrStateResidencyTicks::UNDEFINED 4803926500000                       # Cumulative time (in ticks) in various power states
system.pc.behind_pci.pwrStateResidencyTicks::UNDEFINED 4803926500000                       # Cumulative time (in ticks) in various power states
system.pc.com_1.pwrStateResidencyTicks::UNDEFINED 4803926500000                       # Cumulative time (in ticks) in various power states
system.pc.fake_com_2.pwrStateResidencyTicks::UNDEFINED 4803926500000                       # Cumulative time (in ticks) in various power states
system.pc.fake_com_3.pwrStateResidencyTicks::UNDEFINED 4803926500000                       # Cumulative time (in ticks) in various power states
system.pc.fake_com_4.pwrStateResidencyTicks::UNDEFINED 4803926500000                       # Cumulative time (in ticks) in various power states
system.pc.fake_floppy.pwrStateResidencyTicks::UNDEFINED 4803926500000                       # Cumulative time (in ticks) in various power states
system.pc.i_dont_exist1.pwrStateResidencyTicks::UNDEFINED 4803926500000                       # Cumulative time (in ticks) in various power states
system.pc.i_dont_exist2.pwrStateResidencyTicks::UNDEFINED 4803926500000                       # Cumulative time (in ticks) in various power states
system.pc.pci_host.pwrStateResidencyTicks::UNDEFINED 4803926500000                       # Cumulative time (in ticks) in various power states
system.pc.south_bridge.cmos.pwrStateResidencyTicks::UNDEFINED 4803926500000                       # Cumulative time (in ticks) in various power states
system.pc.south_bridge.dma1.pwrStateResidencyTicks::UNDEFINED 4803926500000                       # Cumulative time (in ticks) in various power states
system.pc.south_bridge.pic2.pwrStateResidencyTicks::UNDEFINED 4803926500000                       # Cumulative time (in ticks) in various power states
system.pc.south_bridge.pic1.pwrStateResidencyTicks::UNDEFINED 4803926500000                       # Cumulative time (in ticks) in various power states
system.pc.south_bridge.io_apic.pwrStateResidencyTicks::UNDEFINED 4803926500000                       # Cumulative time (in ticks) in various power states
system.pc.south_bridge.keyboard.pwrStateResidencyTicks::UNDEFINED 4803926500000                       # Cumulative time (in ticks) in various power states
system.pc.south_bridge.pit.pwrStateResidencyTicks::UNDEFINED 4803926500000                       # Cumulative time (in ticks) in various power states
system.pc.south_bridge.speaker.pwrStateResidencyTicks::UNDEFINED 4803926500000                       # Cumulative time (in ticks) in various power states
system.pc.south_bridge.ide.disks.dma_read_full_pages            0                       # Number of full page size DMA reads (not PRD).
system.pc.south_bridge.ide.disks.dma_read_bytes            0                       # Number of bytes transfered via DMA reads (not PRD).
system.pc.south_bridge.ide.disks.dma_read_txs            0                       # Number of DMA read transactions (not PRD).
system.pc.south_bridge.ide.disks.dma_write_full_pages            0                       # Number of full page size DMA writes.
system.pc.south_bridge.ide.disks.dma_write_bytes            0                       # Number of bytes transfered via DMA writes.
system.pc.south_bridge.ide.disks.dma_write_txs            0                       # Number of DMA write transactions.
system.pc.south_bridge.ide.pwrStateResidencyTicks::UNDEFINED 4803926500000                       # Cumulative time (in ticks) in various power states
system.cpu.kern.inst.arm                            0                       # number of arm instructions executed
system.cpu.kern.inst.quiesce                        0                       # number of quiesce instructions executed

---------- End Simulation Statistics   ----------
