
---------- Begin Simulation Statistics ----------
sim_seconds                                  0.001250                       # Number of seconds simulated
sim_ticks                                  1249737500                       # Number of ticks simulated
final_tick                               4791280559000                       # Number of ticks from beginning of simulation (restored from checkpoints and never reset)
sim_freq                                 1000000000000                       # Frequency of simulated ticks
host_inst_rate                              137350484                       # Simulator instruction rate (inst/s)
host_op_rate                                320970348                       # Simulator op (including micro ops) rate (op/s)
host_tick_rate                              115570633                       # Simulator tick rate (ticks/s)
host_mem_usage                                1472124                       # Number of bytes of host memory used
host_seconds                                    10.81                       # Real time elapsed on the host
sim_insts                                  1485253772                       # Number of instructions simulated
sim_ops                                    3470849986                       # Number of ops (including micro ops) simulated
system.clk_domain.voltage_domain.voltage            1                       # Voltage in Volts
system.clk_domain.clock                           500                       # Clock period in ticks
system.mem_cntrl.pwrStateResidencyTicks::UNDEFINED 4791280559000                       # Cumulative time (in ticks) in various power states
system.mem_cntrl.bytes_read::cpu.dtb.walker        18424                       # Number of bytes read from this memory
system.mem_cntrl.bytes_read::cpu.itb.walker          360                       # Number of bytes read from this memory
system.mem_cntrl.bytes_read::cpu.inst           28224                       # Number of bytes read from this memory
system.mem_cntrl.bytes_read::cpu.data           41280                       # Number of bytes read from this memory
system.mem_cntrl.bytes_read::total              88288                       # Number of bytes read from this memory
system.mem_cntrl.bytes_inst_read::cpu.inst        28224                       # Number of instructions bytes read from this memory
system.mem_cntrl.bytes_inst_read::total         28224                       # Number of instructions bytes read from this memory
system.mem_cntrl.bytes_written::writebacks        30016                       # Number of bytes written to this memory
system.mem_cntrl.bytes_written::total           30016                       # Number of bytes written to this memory
system.mem_cntrl.num_reads::cpu.dtb.walker         2303                       # Number of read requests responded to by this memory
system.mem_cntrl.num_reads::cpu.itb.walker           45                       # Number of read requests responded to by this memory
system.mem_cntrl.num_reads::cpu.inst              441                       # Number of read requests responded to by this memory
system.mem_cntrl.num_reads::cpu.data              645                       # Number of read requests responded to by this memory
system.mem_cntrl.num_reads::total                3434                       # Number of read requests responded to by this memory
system.mem_cntrl.num_writes::writebacks           469                       # Number of write requests responded to by this memory
system.mem_cntrl.num_writes::total                469                       # Number of write requests responded to by this memory
system.mem_cntrl.bw_read::cpu.dtb.walker     14742296                       # Total read bandwidth from this memory (bytes/s)
system.mem_cntrl.bw_read::cpu.itb.walker       288060                       # Total read bandwidth from this memory (bytes/s)
system.mem_cntrl.bw_read::cpu.inst           22583943                       # Total read bandwidth from this memory (bytes/s)
system.mem_cntrl.bw_read::cpu.data           33030936                       # Total read bandwidth from this memory (bytes/s)
system.mem_cntrl.bw_read::total              70645235                       # Total read bandwidth from this memory (bytes/s)
system.mem_cntrl.bw_inst_read::cpu.inst      22583943                       # Instruction read bandwidth from this memory (bytes/s)
system.mem_cntrl.bw_inst_read::total         22583943                       # Instruction read bandwidth from this memory (bytes/s)
system.mem_cntrl.bw_write::writebacks        24017844                       # Write bandwidth from this memory (bytes/s)
system.mem_cntrl.bw_write::total             24017844                       # Write bandwidth from this memory (bytes/s)
system.mem_cntrl.bw_total::writebacks        24017844                       # Total bandwidth to/from this memory (bytes/s)
system.mem_cntrl.bw_total::cpu.dtb.walker     14742296                       # Total bandwidth to/from this memory (bytes/s)
system.mem_cntrl.bw_total::cpu.itb.walker       288060                       # Total bandwidth to/from this memory (bytes/s)
system.mem_cntrl.bw_total::cpu.inst          22583943                       # Total bandwidth to/from this memory (bytes/s)
system.mem_cntrl.bw_total::cpu.data          33030936                       # Total bandwidth to/from this memory (bytes/s)
system.mem_cntrl.bw_total::total             94663079                       # Total bandwidth to/from this memory (bytes/s)
system.mem_cntrl.readReqs                        3434                       # Number of read requests accepted
system.mem_cntrl.writeReqs                        469                       # Number of write requests accepted
system.mem_cntrl.readBursts                      3434                       # Number of DRAM read bursts, including those serviced by the write queue
system.mem_cntrl.writeBursts                      469                       # Number of DRAM write bursts, including those merged in the write queue
system.mem_cntrl.bytesReadDRAM                 219776                       # Total number of bytes read from DRAM
system.mem_cntrl.bytesReadWrQ                       0                       # Total number of bytes read from write queue
system.mem_cntrl.bytesWritten                   29440                       # Total number of bytes written to DRAM
system.mem_cntrl.bytesReadSys                   88288                       # Total read bytes from the system interface side
system.mem_cntrl.bytesWrittenSys                30016                       # Total written bytes from the system interface side
system.mem_cntrl.servicedByWrQ                      0                       # Number of DRAM read bursts serviced by the write queue
system.mem_cntrl.mergedWrBursts                     0                       # Number of DRAM write bursts merged with an existing one
system.mem_cntrl.neitherReadNorWriteReqs            0                       # Number of requests that are neither read nor write
system.mem_cntrl.perBankRdBursts::0                78                       # Per bank write bursts
system.mem_cntrl.perBankRdBursts::1                96                       # Per bank write bursts
system.mem_cntrl.perBankRdBursts::2                27                       # Per bank write bursts
system.mem_cntrl.perBankRdBursts::3                38                       # Per bank write bursts
system.mem_cntrl.perBankRdBursts::4               294                       # Per bank write bursts
system.mem_cntrl.perBankRdBursts::5               345                       # Per bank write bursts
system.mem_cntrl.perBankRdBursts::6               893                       # Per bank write bursts
system.mem_cntrl.perBankRdBursts::7               171                       # Per bank write bursts
system.mem_cntrl.perBankRdBursts::8               738                       # Per bank write bursts
system.mem_cntrl.perBankRdBursts::9               148                       # Per bank write bursts
system.mem_cntrl.perBankRdBursts::10              157                       # Per bank write bursts
system.mem_cntrl.perBankRdBursts::11               97                       # Per bank write bursts
system.mem_cntrl.perBankRdBursts::12               32                       # Per bank write bursts
system.mem_cntrl.perBankRdBursts::13               73                       # Per bank write bursts
system.mem_cntrl.perBankRdBursts::14              166                       # Per bank write bursts
system.mem_cntrl.perBankRdBursts::15               81                       # Per bank write bursts
system.mem_cntrl.perBankWrBursts::0                39                       # Per bank write bursts
system.mem_cntrl.perBankWrBursts::1                40                       # Per bank write bursts
system.mem_cntrl.perBankWrBursts::2                12                       # Per bank write bursts
system.mem_cntrl.perBankWrBursts::3                19                       # Per bank write bursts
system.mem_cntrl.perBankWrBursts::4                 8                       # Per bank write bursts
system.mem_cntrl.perBankWrBursts::5                 9                       # Per bank write bursts
system.mem_cntrl.perBankWrBursts::6                11                       # Per bank write bursts
system.mem_cntrl.perBankWrBursts::7                15                       # Per bank write bursts
system.mem_cntrl.perBankWrBursts::8                17                       # Per bank write bursts
system.mem_cntrl.perBankWrBursts::9                68                       # Per bank write bursts
system.mem_cntrl.perBankWrBursts::10               32                       # Per bank write bursts
system.mem_cntrl.perBankWrBursts::11                6                       # Per bank write bursts
system.mem_cntrl.perBankWrBursts::12               18                       # Per bank write bursts
system.mem_cntrl.perBankWrBursts::13               32                       # Per bank write bursts
system.mem_cntrl.perBankWrBursts::14               78                       # Per bank write bursts
system.mem_cntrl.perBankWrBursts::15               56                       # Per bank write bursts
system.mem_cntrl.numRdRetry                         0                       # Number of times read queue was full causing retry
system.mem_cntrl.numWrRetry                         0                       # Number of times write queue was full causing retry
system.mem_cntrl.totGap                    1246449500                       # Total gap between requests
system.mem_cntrl.readPktSize::0                     0                       # Read request sizes (log2)
system.mem_cntrl.readPktSize::1                     0                       # Read request sizes (log2)
system.mem_cntrl.readPktSize::2                     0                       # Read request sizes (log2)
system.mem_cntrl.readPktSize::3                  2348                       # Read request sizes (log2)
system.mem_cntrl.readPktSize::4                     0                       # Read request sizes (log2)
system.mem_cntrl.readPktSize::5                     0                       # Read request sizes (log2)
system.mem_cntrl.readPktSize::6                  1086                       # Read request sizes (log2)
system.mem_cntrl.writePktSize::0                    0                       # Write request sizes (log2)
system.mem_cntrl.writePktSize::1                    0                       # Write request sizes (log2)
system.mem_cntrl.writePktSize::2                    0                       # Write request sizes (log2)
system.mem_cntrl.writePktSize::3                    0                       # Write request sizes (log2)
system.mem_cntrl.writePktSize::4                    0                       # Write request sizes (log2)
system.mem_cntrl.writePktSize::5                    0                       # Write request sizes (log2)
system.mem_cntrl.writePktSize::6                  469                       # Write request sizes (log2)
system.mem_cntrl.rdQLenPdf::0                    3249                       # What read queue length does an incoming req see
system.mem_cntrl.rdQLenPdf::1                     165                       # What read queue length does an incoming req see
system.mem_cntrl.rdQLenPdf::2                      18                       # What read queue length does an incoming req see
system.mem_cntrl.rdQLenPdf::3                       2                       # What read queue length does an incoming req see
system.mem_cntrl.rdQLenPdf::4                       0                       # What read queue length does an incoming req see
system.mem_cntrl.rdQLenPdf::5                       0                       # What read queue length does an incoming req see
system.mem_cntrl.rdQLenPdf::6                       0                       # What read queue length does an incoming req see
system.mem_cntrl.rdQLenPdf::7                       0                       # What read queue length does an incoming req see
system.mem_cntrl.rdQLenPdf::8                       0                       # What read queue length does an incoming req see
system.mem_cntrl.rdQLenPdf::9                       0                       # What read queue length does an incoming req see
system.mem_cntrl.rdQLenPdf::10                      0                       # What read queue length does an incoming req see
system.mem_cntrl.rdQLenPdf::11                      0                       # What read queue length does an incoming req see
system.mem_cntrl.rdQLenPdf::12                      0                       # What read queue length does an incoming req see
system.mem_cntrl.rdQLenPdf::13                      0                       # What read queue length does an incoming req see
system.mem_cntrl.rdQLenPdf::14                      0                       # What read queue length does an incoming req see
system.mem_cntrl.rdQLenPdf::15                      0                       # What read queue length does an incoming req see
system.mem_cntrl.rdQLenPdf::16                      0                       # What read queue length does an incoming req see
system.mem_cntrl.rdQLenPdf::17                      0                       # What read queue length does an incoming req see
system.mem_cntrl.rdQLenPdf::18                      0                       # What read queue length does an incoming req see
system.mem_cntrl.rdQLenPdf::19                      0                       # What read queue length does an incoming req see
system.mem_cntrl.rdQLenPdf::20                      0                       # What read queue length does an incoming req see
system.mem_cntrl.rdQLenPdf::21                      0                       # What read queue length does an incoming req see
system.mem_cntrl.rdQLenPdf::22                      0                       # What read queue length does an incoming req see
system.mem_cntrl.rdQLenPdf::23                      0                       # What read queue length does an incoming req see
system.mem_cntrl.rdQLenPdf::24                      0                       # What read queue length does an incoming req see
system.mem_cntrl.rdQLenPdf::25                      0                       # What read queue length does an incoming req see
system.mem_cntrl.rdQLenPdf::26                      0                       # What read queue length does an incoming req see
system.mem_cntrl.rdQLenPdf::27                      0                       # What read queue length does an incoming req see
system.mem_cntrl.rdQLenPdf::28                      0                       # What read queue length does an incoming req see
system.mem_cntrl.rdQLenPdf::29                      0                       # What read queue length does an incoming req see
system.mem_cntrl.rdQLenPdf::30                      0                       # What read queue length does an incoming req see
system.mem_cntrl.rdQLenPdf::31                      0                       # What read queue length does an incoming req see
system.mem_cntrl.wrQLenPdf::0                       0                       # What write queue length does an incoming req see
system.mem_cntrl.wrQLenPdf::1                       0                       # What write queue length does an incoming req see
system.mem_cntrl.wrQLenPdf::2                       0                       # What write queue length does an incoming req see
system.mem_cntrl.wrQLenPdf::3                       0                       # What write queue length does an incoming req see
system.mem_cntrl.wrQLenPdf::4                       0                       # What write queue length does an incoming req see
system.mem_cntrl.wrQLenPdf::5                       0                       # What write queue length does an incoming req see
system.mem_cntrl.wrQLenPdf::6                       0                       # What write queue length does an incoming req see
system.mem_cntrl.wrQLenPdf::7                       0                       # What write queue length does an incoming req see
system.mem_cntrl.wrQLenPdf::8                       0                       # What write queue length does an incoming req see
system.mem_cntrl.wrQLenPdf::9                       0                       # What write queue length does an incoming req see
system.mem_cntrl.wrQLenPdf::10                      0                       # What write queue length does an incoming req see
system.mem_cntrl.wrQLenPdf::11                      0                       # What write queue length does an incoming req see
system.mem_cntrl.wrQLenPdf::12                      0                       # What write queue length does an incoming req see
system.mem_cntrl.wrQLenPdf::13                      0                       # What write queue length does an incoming req see
system.mem_cntrl.wrQLenPdf::14                      0                       # What write queue length does an incoming req see
system.mem_cntrl.wrQLenPdf::15                      6                       # What write queue length does an incoming req see
system.mem_cntrl.wrQLenPdf::16                      6                       # What write queue length does an incoming req see
system.mem_cntrl.wrQLenPdf::17                     25                       # What write queue length does an incoming req see
system.mem_cntrl.wrQLenPdf::18                     28                       # What write queue length does an incoming req see
system.mem_cntrl.wrQLenPdf::19                     28                       # What write queue length does an incoming req see
system.mem_cntrl.wrQLenPdf::20                     28                       # What write queue length does an incoming req see
system.mem_cntrl.wrQLenPdf::21                     29                       # What write queue length does an incoming req see
system.mem_cntrl.wrQLenPdf::22                     28                       # What write queue length does an incoming req see
system.mem_cntrl.wrQLenPdf::23                     29                       # What write queue length does an incoming req see
system.mem_cntrl.wrQLenPdf::24                     29                       # What write queue length does an incoming req see
system.mem_cntrl.wrQLenPdf::25                     29                       # What write queue length does an incoming req see
system.mem_cntrl.wrQLenPdf::26                     29                       # What write queue length does an incoming req see
system.mem_cntrl.wrQLenPdf::27                     29                       # What write queue length does an incoming req see
system.mem_cntrl.wrQLenPdf::28                     29                       # What write queue length does an incoming req see
system.mem_cntrl.wrQLenPdf::29                     29                       # What write queue length does an incoming req see
system.mem_cntrl.wrQLenPdf::30                     31                       # What write queue length does an incoming req see
system.mem_cntrl.wrQLenPdf::31                     29                       # What write queue length does an incoming req see
system.mem_cntrl.wrQLenPdf::32                     28                       # What write queue length does an incoming req see
system.mem_cntrl.wrQLenPdf::33                      0                       # What write queue length does an incoming req see
system.mem_cntrl.wrQLenPdf::34                      0                       # What write queue length does an incoming req see
system.mem_cntrl.wrQLenPdf::35                      0                       # What write queue length does an incoming req see
system.mem_cntrl.wrQLenPdf::36                      0                       # What write queue length does an incoming req see
system.mem_cntrl.wrQLenPdf::37                      0                       # What write queue length does an incoming req see
system.mem_cntrl.wrQLenPdf::38                      0                       # What write queue length does an incoming req see
system.mem_cntrl.wrQLenPdf::39                      0                       # What write queue length does an incoming req see
system.mem_cntrl.wrQLenPdf::40                      0                       # What write queue length does an incoming req see
system.mem_cntrl.wrQLenPdf::41                      0                       # What write queue length does an incoming req see
system.mem_cntrl.wrQLenPdf::42                      0                       # What write queue length does an incoming req see
system.mem_cntrl.wrQLenPdf::43                      0                       # What write queue length does an incoming req see
system.mem_cntrl.wrQLenPdf::44                      0                       # What write queue length does an incoming req see
system.mem_cntrl.wrQLenPdf::45                      0                       # What write queue length does an incoming req see
system.mem_cntrl.wrQLenPdf::46                      0                       # What write queue length does an incoming req see
system.mem_cntrl.wrQLenPdf::47                      0                       # What write queue length does an incoming req see
system.mem_cntrl.wrQLenPdf::48                      0                       # What write queue length does an incoming req see
system.mem_cntrl.wrQLenPdf::49                      0                       # What write queue length does an incoming req see
system.mem_cntrl.wrQLenPdf::50                      0                       # What write queue length does an incoming req see
system.mem_cntrl.wrQLenPdf::51                      0                       # What write queue length does an incoming req see
system.mem_cntrl.wrQLenPdf::52                      0                       # What write queue length does an incoming req see
system.mem_cntrl.wrQLenPdf::53                      0                       # What write queue length does an incoming req see
system.mem_cntrl.wrQLenPdf::54                      0                       # What write queue length does an incoming req see
system.mem_cntrl.wrQLenPdf::55                      0                       # What write queue length does an incoming req see
system.mem_cntrl.wrQLenPdf::56                      0                       # What write queue length does an incoming req see
system.mem_cntrl.wrQLenPdf::57                      0                       # What write queue length does an incoming req see
system.mem_cntrl.wrQLenPdf::58                      0                       # What write queue length does an incoming req see
system.mem_cntrl.wrQLenPdf::59                      0                       # What write queue length does an incoming req see
system.mem_cntrl.wrQLenPdf::60                      0                       # What write queue length does an incoming req see
system.mem_cntrl.wrQLenPdf::61                      0                       # What write queue length does an incoming req see
system.mem_cntrl.wrQLenPdf::62                      0                       # What write queue length does an incoming req see
system.mem_cntrl.wrQLenPdf::63                      0                       # What write queue length does an incoming req see
system.mem_cntrl.bytesPerActivate::samples         1054                       # Bytes accessed per row activation
system.mem_cntrl.bytesPerActivate::mean    236.265655                       # Bytes accessed per row activation
system.mem_cntrl.bytesPerActivate::gmean   141.270043                       # Bytes accessed per row activation
system.mem_cntrl.bytesPerActivate::stdev   280.511522                       # Bytes accessed per row activation
system.mem_cntrl.bytesPerActivate::0-127          510     48.39%     48.39% # Bytes accessed per row activation
system.mem_cntrl.bytesPerActivate::128-255          238     22.58%     70.97% # Bytes accessed per row activation
system.mem_cntrl.bytesPerActivate::256-383          106     10.06%     81.02% # Bytes accessed per row activation
system.mem_cntrl.bytesPerActivate::384-511           38      3.61%     84.63% # Bytes accessed per row activation
system.mem_cntrl.bytesPerActivate::512-639           28      2.66%     87.29% # Bytes accessed per row activation
system.mem_cntrl.bytesPerActivate::640-767           29      2.75%     90.04% # Bytes accessed per row activation
system.mem_cntrl.bytesPerActivate::768-895           22      2.09%     92.13% # Bytes accessed per row activation
system.mem_cntrl.bytesPerActivate::896-1023           18      1.71%     93.83% # Bytes accessed per row activation
system.mem_cntrl.bytesPerActivate::1024-1151           65      6.17%    100.00% # Bytes accessed per row activation
system.mem_cntrl.bytesPerActivate::total         1054                       # Bytes accessed per row activation
system.mem_cntrl.rdPerTurnAround::samples           28                       # Reads before turning the bus around for writes
system.mem_cntrl.rdPerTurnAround::mean     114.142857                       # Reads before turning the bus around for writes
system.mem_cntrl.rdPerTurnAround::gmean     70.309142                       # Reads before turning the bus around for writes
system.mem_cntrl.rdPerTurnAround::stdev    128.604969                       # Reads before turning the bus around for writes
system.mem_cntrl.rdPerTurnAround::0-31              4     14.29%     14.29% # Reads before turning the bus around for writes
system.mem_cntrl.rdPerTurnAround::32-63            13     46.43%     60.71% # Reads before turning the bus around for writes
system.mem_cntrl.rdPerTurnAround::64-95             2      7.14%     67.86% # Reads before turning the bus around for writes
system.mem_cntrl.rdPerTurnAround::96-127            1      3.57%     71.43% # Reads before turning the bus around for writes
system.mem_cntrl.rdPerTurnAround::128-159            1      3.57%     75.00% # Reads before turning the bus around for writes
system.mem_cntrl.rdPerTurnAround::224-255            3     10.71%     85.71% # Reads before turning the bus around for writes
system.mem_cntrl.rdPerTurnAround::256-287            2      7.14%     92.86% # Reads before turning the bus around for writes
system.mem_cntrl.rdPerTurnAround::320-351            1      3.57%     96.43% # Reads before turning the bus around for writes
system.mem_cntrl.rdPerTurnAround::544-575            1      3.57%    100.00% # Reads before turning the bus around for writes
system.mem_cntrl.rdPerTurnAround::total            28                       # Reads before turning the bus around for writes
system.mem_cntrl.wrPerTurnAround::samples           28                       # Writes before turning the bus around for reads
system.mem_cntrl.wrPerTurnAround::mean      16.428571                       # Writes before turning the bus around for reads
system.mem_cntrl.wrPerTurnAround::gmean     16.408967                       # Writes before turning the bus around for reads
system.mem_cntrl.wrPerTurnAround::stdev      0.835711                       # Writes before turning the bus around for reads
system.mem_cntrl.wrPerTurnAround::16               22     78.57%     78.57% # Writes before turning the bus around for reads
system.mem_cntrl.wrPerTurnAround::18                6     21.43%    100.00% # Writes before turning the bus around for reads
system.mem_cntrl.wrPerTurnAround::total            28                       # Writes before turning the bus around for reads
system.mem_cntrl.totQLat                     64265750                       # Total ticks spent queuing
system.mem_cntrl.totMemAccLat               128653250                       # Total ticks spent from burst creation until serviced by the DRAM
system.mem_cntrl.totBusLat                   17170000                       # Total ticks spent in databus transfers
system.mem_cntrl.avgQLat                     18714.55                       # Average queueing delay per DRAM burst
system.mem_cntrl.avgBusLat                    5000.00                       # Average bus latency per DRAM burst
system.mem_cntrl.avgMemAccLat                37464.55                       # Average memory access latency per DRAM burst
system.mem_cntrl.avgRdBW                       175.86                       # Average DRAM read bandwidth in MiByte/s
system.mem_cntrl.avgWrBW                        23.56                       # Average achieved write bandwidth in MiByte/s
system.mem_cntrl.avgRdBWSys                     70.65                       # Average system read bandwidth in MiByte/s
system.mem_cntrl.avgWrBWSys                     24.02                       # Average system write bandwidth in MiByte/s
system.mem_cntrl.peakBW                      12800.00                       # Theoretical peak bandwidth in MiByte/s
system.mem_cntrl.busUtil                         1.56                       # Data bus utilization in percentage
system.mem_cntrl.busUtilRead                     1.37                       # Data bus utilization in percentage for reads
system.mem_cntrl.busUtilWrite                    0.18                       # Data bus utilization in percentage for writes
system.mem_cntrl.avgRdQLen                       1.04                       # Average read queue length when enqueuing
system.mem_cntrl.avgWrQLen                      25.28                       # Average write queue length when enqueuing
system.mem_cntrl.readRowHits                     2624                       # Number of row buffer hits during reads
system.mem_cntrl.writeRowHits                     217                       # Number of row buffer hits during writes
system.mem_cntrl.readRowHitRate                 76.41                       # Row buffer hit rate for reads
system.mem_cntrl.writeRowHitRate                46.27                       # Row buffer hit rate for writes
system.mem_cntrl.avgGap                     319356.78                       # Average gap between requests
system.mem_cntrl.pageHitRate                    72.79                       # Row buffer hit rate, read and write combined
system.mem_cntrl_0.actEnergy                  4348260                       # Energy for activate commands per rank (pJ)
system.mem_cntrl_0.preEnergy                  2299770                       # Energy for precharge commands per rank (pJ)
system.mem_cntrl_0.readEnergy                13901580                       # Energy for read commands per rank (pJ)
system.mem_cntrl_0.writeEnergy                 798660                       # Energy for write commands per rank (pJ)
system.mem_cntrl_0.refreshEnergy         93425280.000000                       # Energy for refresh commands per rank (pJ)
system.mem_cntrl_0.actBackEnergy             53522430                       # Energy for active background per rank (pJ)
system.mem_cntrl_0.preBackEnergy              2748960                       # Energy for precharge background per rank (pJ)
system.mem_cntrl_0.actPowerDownEnergy       343440960                       # Energy for active power-down per rank (pJ)
system.mem_cntrl_0.prePowerDownEnergy        94237440                       # Energy for precharge power-down per rank (pJ)
system.mem_cntrl_0.selfRefreshEnergy         35862060                       # Energy for self refresh per rank (pJ)
system.mem_cntrl_0.totalEnergy              644668770                       # Total energy per rank (pJ)
system.mem_cntrl_0.averagePower            515.843343                       # Core power per rank (mW)
system.mem_cntrl_0.totalIdleTime           1123620250                       # Total Idle time Per DRAM Rank
system.mem_cntrl_0.memoryStateTime::IDLE      3186000                       # Time in different power states
system.mem_cntrl_0.memoryStateTime::REF      39574000                       # Time in different power states
system.mem_cntrl_0.memoryStateTime::SREF    128531500                       # Time in different power states
system.mem_cntrl_0.memoryStateTime::PRE_PDN    245415750                       # Time in different power states
system.mem_cntrl_0.memoryStateTime::ACT      81872000                       # Time in different power states
system.mem_cntrl_0.memoryStateTime::ACT_PDN    753135250                       # Time in different power states
system.mem_cntrl_1.actEnergy                  3205860                       # Energy for activate commands per rank (pJ)
system.mem_cntrl_1.preEnergy                  1700160                       # Energy for precharge commands per rank (pJ)
system.mem_cntrl_1.readEnergy                10667160                       # Energy for read commands per rank (pJ)
system.mem_cntrl_1.writeEnergy                1602540                       # Energy for write commands per rank (pJ)
system.mem_cntrl_1.refreshEnergy         89737440.000000                       # Energy for refresh commands per rank (pJ)
system.mem_cntrl_1.actBackEnergy             39548310                       # Energy for active background per rank (pJ)
system.mem_cntrl_1.preBackEnergy              3664320                       # Energy for precharge background per rank (pJ)
system.mem_cntrl_1.actPowerDownEnergy       282739380                       # Energy for active power-down per rank (pJ)
system.mem_cntrl_1.prePowerDownEnergy       113057280                       # Energy for precharge power-down per rank (pJ)
system.mem_cntrl_1.selfRefreshEnergy         67577220                       # Energy for self refresh per rank (pJ)
system.mem_cntrl_1.totalEnergy              613499670                       # Total energy per rank (pJ)
system.mem_cntrl_1.averagePower            490.902826                       # Core power per rank (mW)
system.mem_cntrl_1.totalIdleTime           1150236500                       # Total Idle time Per DRAM Rank
system.mem_cntrl_1.memoryStateTime::IDLE      5502000                       # Time in different power states
system.mem_cntrl_1.memoryStateTime::REF      38080000                       # Time in different power states
system.mem_cntrl_1.memoryStateTime::SREF    240158000                       # Time in different power states
system.mem_cntrl_1.memoryStateTime::PRE_PDN    293629750                       # Time in different power states
system.mem_cntrl_1.memoryStateTime::ACT      52641000                       # Time in different power states
system.mem_cntrl_1.memoryStateTime::ACT_PDN    619961000                       # Time in different power states
system.pwrStateResidencyTicks::UNDEFINED 4791280559000                       # Cumulative time (in ticks) in various power states
system.apicbridge.pwrStateResidencyTicks::UNDEFINED 4791280559000                       # Cumulative time (in ticks) in various power states
system.bridge.pwrStateResidencyTicks::UNDEFINED 4791280559000                       # Cumulative time (in ticks) in various power states
system.cpu.branchPred.lookups                  441827                       # Number of BP lookups
system.cpu.branchPred.condPredicted            441827                       # Number of conditional branches predicted
system.cpu.branchPred.condIncorrect             51513                       # Number of conditional branches incorrect
system.cpu.branchPred.BTBLookups               339808                       # Number of BTB lookups
system.cpu.branchPred.BTBHits                       0                       # Number of BTB hits
system.cpu.branchPred.BTBCorrect                    0                       # Number of correct BTB predictions (this stat may not work properly.
system.cpu.branchPred.BTBHitPct              0.000000                       # BTB Hit Percentage
system.cpu.branchPred.usedRAS                   45656                       # Number of times the RAS was used to get a target.
system.cpu.branchPred.RASInCorrect              10784                       # Number of incorrect RAS predictions.
system.cpu.branchPred.correctpredictionPercent    88.340912                       # Correct prediction percentage
system.cpu.branchPred.indirectLookups          339808                       # Number of indirect predictor lookups.
system.cpu.branchPred.indirectHits              88913                       # Number of indirect target hits.
system.cpu.branchPred.indirectMisses           250895                       # Number of indirect misses.
system.cpu.branchPredindirectMispredicted        36693                       # Number of mispredicted indirect branches.
system.cpu.dtb.walker.pwrStateResidencyTicks::UNDEFINED 4791280559000                       # Cumulative time (in ticks) in various power states
system.cpu.dtb.rdAccesses                      358082                       # TLB accesses on read requests
system.cpu.dtb.wrAccesses                      228618                       # TLB accesses on write requests
system.cpu.dtb.rdMisses                          9224                       # TLB misses on read requests
system.cpu.dtb.wrMisses                          1934                       # TLB misses on write requests
system.cpu.apic_clk_domain.clock                 8000                       # Clock period in ticks
system.cpu.interrupts.pwrStateResidencyTicks::UNDEFINED 4791280559000                       # Cumulative time (in ticks) in various power states
system.cpu.itb.walker.pwrStateResidencyTicks::UNDEFINED 4791280559000                       # Cumulative time (in ticks) in various power states
system.cpu.itb.rdAccesses                           0                       # TLB accesses on read requests
system.cpu.itb.wrAccesses                      280316                       # TLB accesses on write requests
system.cpu.itb.rdMisses                             0                       # TLB misses on read requests
system.cpu.itb.wrMisses                          1349                       # TLB misses on write requests
system.cpu.pwrStateResidencyTicks::ON      2508492000                       # Cumulative time (in ticks) in various power states
system.cpu.numCycles                          2499475                       # number of cpu cycles simulated
system.cpu.numWorkItemsStarted                      0                       # number of work items this cpu started
system.cpu.numWorkItemsCompleted                    0                       # number of work items this cpu completed
system.cpu.fetch.icacheStallCycles             570468                       # Number of cycles fetch is stalled on an Icache miss
system.cpu.fetch.Insts                        2016163                       # Number of instructions fetch has processed
system.cpu.fetch.Branches                      441827                       # Number of branches that fetch encountered
system.cpu.fetch.predictedBranches             134569                       # Number of branches that fetch has predicted taken
system.cpu.fetch.Cycles                       1642450                       # Number of cycles fetch has run and was not squashing or blocked
system.cpu.fetch.SquashCycles                  111628                       # Number of cycles fetch has spent squashing
system.cpu.fetch.TlbCycles                      51483                       # Number of cycles fetch has spent waiting for tlb
system.cpu.fetch.MiscStallCycles                 1469                       # Number of cycles fetch has spent waiting on interrupts, or bad addresses, or out of MSHRs
system.cpu.fetch.PendingTrapStallCycles         40767                       # Number of stall cycles due to pending traps
system.cpu.fetch.PendingQuiesceStallCycles           26                       # Number of stall cycles due to pending quiesce instructions
system.cpu.fetch.IcacheWaitRetryStallCycles            8                       # Number of stall cycles due to full MSHR
system.cpu.fetch.CacheLines                    274680                       # Number of cache lines fetched
system.cpu.fetch.IcacheSquashes                 20266                       # Number of outstanding Icache misses that were squashed
system.cpu.fetch.ItlbSquashes                     619                       # Number of outstanding ITLB misses that were squashed
system.cpu.fetch.rateDist::samples            2362485                       # Number of instructions fetched each cycle (Total)
system.cpu.fetch.rateDist::mean              1.673526                       # Number of instructions fetched each cycle (Total)
system.cpu.fetch.rateDist::stdev             3.054659                       # Number of instructions fetched each cycle (Total)
system.cpu.fetch.rateDist::underflows               0      0.00%      0.00% # Number of instructions fetched each cycle (Total)
system.cpu.fetch.rateDist::0                  1730395     73.24%     73.24% # Number of instructions fetched each cycle (Total)
system.cpu.fetch.rateDist::1                    57394      2.43%     75.67% # Number of instructions fetched each cycle (Total)
system.cpu.fetch.rateDist::2                    30651      1.30%     76.97% # Number of instructions fetched each cycle (Total)
system.cpu.fetch.rateDist::3                    36601      1.55%     78.52% # Number of instructions fetched each cycle (Total)
system.cpu.fetch.rateDist::4                    36232      1.53%     80.05% # Number of instructions fetched each cycle (Total)
system.cpu.fetch.rateDist::5                    32160      1.36%     81.42% # Number of instructions fetched each cycle (Total)
system.cpu.fetch.rateDist::6                    31390      1.33%     82.74% # Number of instructions fetched each cycle (Total)
system.cpu.fetch.rateDist::7                    30183      1.28%     84.02% # Number of instructions fetched each cycle (Total)
system.cpu.fetch.rateDist::8                   377479     15.98%    100.00% # Number of instructions fetched each cycle (Total)
system.cpu.fetch.rateDist::overflows                0      0.00%    100.00% # Number of instructions fetched each cycle (Total)
system.cpu.fetch.rateDist::min_value                0                       # Number of instructions fetched each cycle (Total)
system.cpu.fetch.rateDist::max_value                8                       # Number of instructions fetched each cycle (Total)
system.cpu.fetch.rateDist::total              2362485                       # Number of instructions fetched each cycle (Total)
system.cpu.fetch.branchRate                  0.176768                       # Number of branch fetches per cycle
system.cpu.fetch.rate                        0.806635                       # Number of inst fetches per cycle
system.cpu.decode.IdleCycles                   540651                       # Number of cycles decode is idle
system.cpu.decode.BlockedCycles               1244880                       # Number of cycles decode is blocked
system.cpu.decode.RunCycles                    455150                       # Number of cycles decode is running
system.cpu.decode.UnblockCycles                 65990                       # Number of cycles decode is unblocking
system.cpu.decode.SquashCycles                  55814                       # Number of cycles decode is squashing
system.cpu.decode.DecodedInsts                3551342                       # Number of instructions handled by decode
system.cpu.rename.SquashCycles                  55814                       # Number of cycles rename is squashing
system.cpu.rename.IdleCycles                   583640                       # Number of cycles rename is idle
system.cpu.rename.BlockCycles                  620891                       # Number of cycles rename is blocking
system.cpu.rename.serializeStallCycles         315770                       # count of cycles rename stalled for serializing inst
system.cpu.rename.RunCycles                    474141                       # Number of cycles rename is running
system.cpu.rename.UnblockCycles                312229                       # Number of cycles rename is unblocking
system.cpu.rename.RenamedInsts                3327652                       # Number of instructions processed by rename
system.cpu.rename.ROBFullEvents                  3125                       # Number of times rename has blocked due to ROB full
system.cpu.rename.IQFullEvents                  26082                       # Number of times rename has blocked due to IQ full
system.cpu.rename.LQFullEvents                  29595                       # Number of times rename has blocked due to LQ full
system.cpu.rename.SQFullEvents                 236958                       # Number of times rename has blocked due to SQ full
system.cpu.rename.RenamedOperands             3644323                       # Number of destination operands rename has renamed
system.cpu.rename.RenameLookups               8329509                       # Number of register rename lookups that rename has made
system.cpu.rename.int_rename_lookups          5132652                       # Number of integer rename lookups
system.cpu.rename.fp_rename_lookups             13765                       # Number of floating rename lookups
system.cpu.rename.CommittedMaps               1993875                       # Number of HB maps that are committed
system.cpu.rename.UndoneMaps                  1650506                       # Number of HB maps that are undone due to squashing
system.cpu.rename.serializingInsts              14237                       # count of serializing insts renamed
system.cpu.rename.tempSerializingInsts          14266                       # count of temporary serializing insts renamed
system.cpu.rename.skidInsts                    279868                       # count of insts added to the skid buffer
system.cpu.memDep0.insertedLoads               432081                       # Number of loads inserted to the mem dependence unit.
system.cpu.memDep0.insertedStores              280072                       # Number of stores inserted to the mem dependence unit.
system.cpu.memDep0.conflictingLoads             34459                       # Number of conflicting loads.
system.cpu.memDep0.conflictingStores            30436                       # Number of conflicting stores.
system.cpu.iq.iqInstsAdded                    2947939                       # Number of instructions added to the IQ (excludes non-spec)
system.cpu.iq.iqNonSpecInstsAdded               17278                       # Number of non-speculative instructions added to the IQ
system.cpu.iq.iqInstsIssued                   2558540                       # Number of instructions issued
system.cpu.iq.iqSquashedInstsIssued             20501                       # Number of squashed instructions issued
system.cpu.iq.iqSquashedInstsExamined         1180029                       # Number of squashed instructions iterated over during squash; mainly for profiling
system.cpu.iq.iqSquashedOperandsExamined      1710239                       # Number of squashed operands that are examined and possibly removed from graph
system.cpu.iq.iqSquashedNonSpecRemoved           5519                       # Number of squashed non-spec instructions that were removed
system.cpu.iq.issued_per_cycle::samples       2362485                       # Number of insts issued each cycle
system.cpu.iq.issued_per_cycle::mean         1.082987                       # Number of insts issued each cycle
system.cpu.iq.issued_per_cycle::stdev        1.978028                       # Number of insts issued each cycle
system.cpu.iq.issued_per_cycle::underflows            0      0.00%      0.00% # Number of insts issued each cycle
system.cpu.iq.issued_per_cycle::0             1608762     68.10%     68.10% # Number of insts issued each cycle
system.cpu.iq.issued_per_cycle::1              194923      8.25%     76.35% # Number of insts issued each cycle
system.cpu.iq.issued_per_cycle::2              127762      5.41%     81.75% # Number of insts issued each cycle
system.cpu.iq.issued_per_cycle::3              101984      4.32%     86.07% # Number of insts issued each cycle
system.cpu.iq.issued_per_cycle::4               93380      3.95%     90.02% # Number of insts issued each cycle
system.cpu.iq.issued_per_cycle::5               84836      3.59%     93.62% # Number of insts issued each cycle
system.cpu.iq.issued_per_cycle::6               77906      3.30%     96.91% # Number of insts issued each cycle
system.cpu.iq.issued_per_cycle::7               46451      1.97%     98.88% # Number of insts issued each cycle
system.cpu.iq.issued_per_cycle::8               26481      1.12%    100.00% # Number of insts issued each cycle
system.cpu.iq.issued_per_cycle::overflows            0      0.00%    100.00% # Number of insts issued each cycle
system.cpu.iq.issued_per_cycle::min_value            0                       # Number of insts issued each cycle
system.cpu.iq.issued_per_cycle::max_value            8                       # Number of insts issued each cycle
system.cpu.iq.issued_per_cycle::total         2362485                       # Number of insts issued each cycle
system.cpu.iq.fu_full::No_OpClass                   0      0.00%      0.00% # attempts to use FU when none available
system.cpu.iq.fu_full::IntAlu                   25569     67.89%     67.89% # attempts to use FU when none available
system.cpu.iq.fu_full::IntMult                      0      0.00%     67.89% # attempts to use FU when none available
system.cpu.iq.fu_full::IntDiv                       0      0.00%     67.89% # attempts to use FU when none available
system.cpu.iq.fu_full::FloatAdd                    66      0.18%     68.06% # attempts to use FU when none available
system.cpu.iq.fu_full::FloatCmp                     0      0.00%     68.06% # attempts to use FU when none available
system.cpu.iq.fu_full::FloatCvt                     0      0.00%     68.06% # attempts to use FU when none available
system.cpu.iq.fu_full::FloatMult                    0      0.00%     68.06% # attempts to use FU when none available
system.cpu.iq.fu_full::FloatMultAcc                 0      0.00%     68.06% # attempts to use FU when none available
system.cpu.iq.fu_full::FloatDiv                     0      0.00%     68.06% # attempts to use FU when none available
system.cpu.iq.fu_full::FloatMisc                    0      0.00%     68.06% # attempts to use FU when none available
system.cpu.iq.fu_full::FloatSqrt                    0      0.00%     68.06% # attempts to use FU when none available
system.cpu.iq.fu_full::SimdAdd                      0      0.00%     68.06% # attempts to use FU when none available
system.cpu.iq.fu_full::SimdAddAcc                   0      0.00%     68.06% # attempts to use FU when none available
system.cpu.iq.fu_full::SimdAlu                      0      0.00%     68.06% # attempts to use FU when none available
system.cpu.iq.fu_full::SimdCmp                      0      0.00%     68.06% # attempts to use FU when none available
system.cpu.iq.fu_full::SimdCvt                      0      0.00%     68.06% # attempts to use FU when none available
system.cpu.iq.fu_full::SimdMisc                     0      0.00%     68.06% # attempts to use FU when none available
system.cpu.iq.fu_full::SimdMult                     0      0.00%     68.06% # attempts to use FU when none available
system.cpu.iq.fu_full::SimdMultAcc                  0      0.00%     68.06% # attempts to use FU when none available
system.cpu.iq.fu_full::SimdShift                    0      0.00%     68.06% # attempts to use FU when none available
system.cpu.iq.fu_full::SimdShiftAcc                 0      0.00%     68.06% # attempts to use FU when none available
system.cpu.iq.fu_full::SimdSqrt                     0      0.00%     68.06% # attempts to use FU when none available
system.cpu.iq.fu_full::SimdFloatAdd                 0      0.00%     68.06% # attempts to use FU when none available
system.cpu.iq.fu_full::SimdFloatAlu                 0      0.00%     68.06% # attempts to use FU when none available
system.cpu.iq.fu_full::SimdFloatCmp                 0      0.00%     68.06% # attempts to use FU when none available
system.cpu.iq.fu_full::SimdFloatCvt                 0      0.00%     68.06% # attempts to use FU when none available
system.cpu.iq.fu_full::SimdFloatDiv                 0      0.00%     68.06% # attempts to use FU when none available
system.cpu.iq.fu_full::SimdFloatMisc                0      0.00%     68.06% # attempts to use FU when none available
system.cpu.iq.fu_full::SimdFloatMult                0      0.00%     68.06% # attempts to use FU when none available
system.cpu.iq.fu_full::SimdFloatMultAcc             0      0.00%     68.06% # attempts to use FU when none available
system.cpu.iq.fu_full::SimdFloatSqrt                0      0.00%     68.06% # attempts to use FU when none available
system.cpu.iq.fu_full::MemRead                   8626     22.90%     90.96% # attempts to use FU when none available
system.cpu.iq.fu_full::MemWrite                  3360      8.92%     99.89% # attempts to use FU when none available
system.cpu.iq.fu_full::FloatMemRead                19      0.05%     99.94% # attempts to use FU when none available
system.cpu.iq.fu_full::FloatMemWrite               24      0.06%    100.00% # attempts to use FU when none available
system.cpu.iq.fu_full::IprAccess                    0      0.00%    100.00% # attempts to use FU when none available
system.cpu.iq.fu_full::InstPrefetch                 0      0.00%    100.00% # attempts to use FU when none available
system.cpu.iq.FU_type_0::No_OpClass             34460      1.35%      1.35% # Type of FU issued
system.cpu.iq.FU_type_0::IntAlu               1898902     74.22%     75.57% # Type of FU issued
system.cpu.iq.FU_type_0::IntMult                 1482      0.06%     75.62% # Type of FU issued
system.cpu.iq.FU_type_0::IntDiv                  1797      0.07%     75.69% # Type of FU issued
system.cpu.iq.FU_type_0::FloatAdd                3329      0.13%     75.82% # Type of FU issued
system.cpu.iq.FU_type_0::FloatCmp                   0      0.00%     75.82% # Type of FU issued
system.cpu.iq.FU_type_0::FloatCvt                   0      0.00%     75.82% # Type of FU issued
system.cpu.iq.FU_type_0::FloatMult                  0      0.00%     75.82% # Type of FU issued
system.cpu.iq.FU_type_0::FloatMultAcc               0      0.00%     75.82% # Type of FU issued
system.cpu.iq.FU_type_0::FloatDiv                   0      0.00%     75.82% # Type of FU issued
system.cpu.iq.FU_type_0::FloatMisc                  0      0.00%     75.82% # Type of FU issued
system.cpu.iq.FU_type_0::FloatSqrt                  0      0.00%     75.82% # Type of FU issued
system.cpu.iq.FU_type_0::SimdAdd                    0      0.00%     75.82% # Type of FU issued
system.cpu.iq.FU_type_0::SimdAddAcc                 0      0.00%     75.82% # Type of FU issued
system.cpu.iq.FU_type_0::SimdAlu                    0      0.00%     75.82% # Type of FU issued
system.cpu.iq.FU_type_0::SimdCmp                    0      0.00%     75.82% # Type of FU issued
system.cpu.iq.FU_type_0::SimdCvt                    0      0.00%     75.82% # Type of FU issued
system.cpu.iq.FU_type_0::SimdMisc                   0      0.00%     75.82% # Type of FU issued
system.cpu.iq.FU_type_0::SimdMult                   0      0.00%     75.82% # Type of FU issued
system.cpu.iq.FU_type_0::SimdMultAcc                0      0.00%     75.82% # Type of FU issued
system.cpu.iq.FU_type_0::SimdShift                  0      0.00%     75.82% # Type of FU issued
system.cpu.iq.FU_type_0::SimdShiftAcc               0      0.00%     75.82% # Type of FU issued
system.cpu.iq.FU_type_0::SimdSqrt                   0      0.00%     75.82% # Type of FU issued
system.cpu.iq.FU_type_0::SimdFloatAdd               0      0.00%     75.82% # Type of FU issued
system.cpu.iq.FU_type_0::SimdFloatAlu               0      0.00%     75.82% # Type of FU issued
system.cpu.iq.FU_type_0::SimdFloatCmp               0      0.00%     75.82% # Type of FU issued
system.cpu.iq.FU_type_0::SimdFloatCvt               0      0.00%     75.82% # Type of FU issued
system.cpu.iq.FU_type_0::SimdFloatDiv               0      0.00%     75.82% # Type of FU issued
system.cpu.iq.FU_type_0::SimdFloatMisc              0      0.00%     75.82% # Type of FU issued
system.cpu.iq.FU_type_0::SimdFloatMult              0      0.00%     75.82% # Type of FU issued
system.cpu.iq.FU_type_0::SimdFloatMultAcc            0      0.00%     75.82% # Type of FU issued
system.cpu.iq.FU_type_0::SimdFloatSqrt              0      0.00%     75.82% # Type of FU issued
system.cpu.iq.FU_type_0::MemRead               376823     14.73%     90.55% # Type of FU issued
system.cpu.iq.FU_type_0::MemWrite              240061      9.38%     99.93% # Type of FU issued
system.cpu.iq.FU_type_0::FloatMemRead            1588      0.06%    100.00% # Type of FU issued
system.cpu.iq.FU_type_0::FloatMemWrite             98      0.00%    100.00% # Type of FU issued
system.cpu.iq.FU_type_0::IprAccess                  0      0.00%    100.00% # Type of FU issued
system.cpu.iq.FU_type_0::InstPrefetch               0      0.00%    100.00% # Type of FU issued
system.cpu.iq.FU_type_0::total                2558540                       # Type of FU issued
system.cpu.iq.rate                           1.023631                       # Inst issue rate
system.cpu.iq.fu_busy_cnt                       37664                       # FU busy when requested
system.cpu.iq.fu_busy_rate                   0.014721                       # FU busy rate (busy events/executed inst)
system.cpu.iq.int_inst_queue_reads            7526969                       # Number of integer instruction queue reads
system.cpu.iq.int_inst_queue_writes           4133436                       # Number of integer instruction queue writes
system.cpu.iq.int_inst_queue_wakeup_accesses      2393355                       # Number of integer instruction queue wakeup accesses
system.cpu.iq.fp_inst_queue_reads               10761                       # Number of floating instruction queue reads
system.cpu.iq.fp_inst_queue_writes              12940                       # Number of floating instruction queue writes
system.cpu.iq.fp_inst_queue_wakeup_accesses         4498                       # Number of floating instruction queue wakeup accesses
system.cpu.iq.int_alu_accesses                2556450                       # Number of integer alu accesses
system.cpu.iq.fp_alu_accesses                    5294                       # Number of floating point alu accesses
system.cpu.iew.lsq.thread0.forwLoads            32196                       # Number of loads that had data forwarded from stores
system.cpu.iew.lsq.thread0.invAddrLoads             0                       # Number of loads ignored due to an invalid address
system.cpu.iew.lsq.thread0.squashedLoads       171501                       # Number of loads squashed
system.cpu.iew.lsq.thread0.ignoredResponses          687                       # Number of memory responses ignored because the instruction is squashed
system.cpu.iew.lsq.thread0.memOrderViolation         1168                       # Number of memory ordering violations
system.cpu.iew.lsq.thread0.squashedStores        87524                       # Number of stores squashed
system.cpu.iew.lsq.thread0.invAddrSwpfs             0                       # Number of software prefetches ignored due to an invalid address
system.cpu.iew.lsq.thread0.blockedLoads             0                       # Number of blocked loads due to partial load-store forwarding
system.cpu.iew.lsq.thread0.rescheduledLoads         1425                       # Number of loads that were rescheduled
system.cpu.iew.lsq.thread0.cacheBlocked          2055                       # Number of times an access to memory failed due to the cache being blocked
system.cpu.iew.iewIdleCycles                        0                       # Number of cycles IEW is idle
system.cpu.iew.iewSquashCycles                  55814                       # Number of cycles IEW is squashing
system.cpu.iew.iewBlockCycles                  345599                       # Number of cycles IEW is blocking
system.cpu.iew.iewUnblockCycles                154127                       # Number of cycles IEW is unblocking
system.cpu.iew.iewDispatchedInsts             2965260                       # Number of instructions dispatched to IQ
system.cpu.iew.iewDispSquashedInsts              5193                       # Number of squashed instructions skipped by dispatch
system.cpu.iew.iewDispLoadInsts                432081                       # Number of dispatched load instructions
system.cpu.iew.iewDispStoreInsts               280072                       # Number of dispatched store instructions
system.cpu.iew.iewDispNonSpecInsts              15455                       # Number of dispatched non-speculative instructions
system.cpu.iew.iewIQFullEvents                   1222                       # Number of times the IQ has become full, causing a stall
system.cpu.iew.iewLSQFullEvents                152283                       # Number of times the LSQ has become full, causing a stall
system.cpu.iew.memOrderViolationEvents           1168                       # Number of memory order violations
system.cpu.iew.predictedTakenIncorrect          14668                       # Number of branches that were predicted taken incorrectly
system.cpu.iew.predictedNotTakenIncorrect        54797                       # Number of branches that were predicted not taken incorrectly
system.cpu.iew.branchMispredicts                69465                       # Number of branch mispredicts detected at execute
system.cpu.iew.iewExecutedInsts               2442205                       # Number of executed instructions
system.cpu.iew.iewExecLoadInsts                348802                       # Number of load instructions executed
system.cpu.iew.iewExecSquashedInsts            105281                       # Number of squashed instructions skipped in execute
system.cpu.iew.exec_swp                             0                       # number of swp insts executed
system.cpu.iew.exec_nop                            43                       # number of nop insts executed
system.cpu.iew.exec_refs                       575477                       # number of memory reference insts executed
system.cpu.iew.exec_branches                   244510                       # Number of branches executed
system.cpu.iew.exec_stores                     226675                       # Number of stores executed
system.cpu.iew.exec_rate                     0.977087                       # Inst execution rate
system.cpu.iew.wb_sent                        2414405                       # cumulative count of insts sent to commit
system.cpu.iew.wb_count                       2397853                       # cumulative count of insts written-back
system.cpu.iew.wb_producers                   1575945                       # num instructions producing a value
system.cpu.iew.wb_consumers                   2529525                       # num instructions consuming a value
system.cpu.iew.wb_rate                       0.959343                       # insts written-back per cycle
system.cpu.iew.wb_fanout                     0.623020                       # average fanout of values written-back
system.cpu.commit.commitSquashedInsts         1178718                       # The number of squashed insts skipped by commit
system.cpu.commit.commitNonSpecStalls           11759                       # The number of times commit has been forced to stall to communicate backwards
system.cpu.commit.branchMispredicts             53325                       # The number of times a branch was mispredicted
system.cpu.commit.committed_per_cycle::samples      2167297                       # Number of insts commited each cycle
system.cpu.commit.committed_per_cycle::mean     0.823713                       # Number of insts commited each cycle
system.cpu.commit.committed_per_cycle::stdev     1.923473                       # Number of insts commited each cycle
system.cpu.commit.committed_per_cycle::underflows            0      0.00%      0.00% # Number of insts commited each cycle
system.cpu.commit.committed_per_cycle::0      1635941     75.48%     75.48% # Number of insts commited each cycle
system.cpu.commit.committed_per_cycle::1       188702      8.71%     84.19% # Number of insts commited each cycle
system.cpu.commit.committed_per_cycle::2        75944      3.50%     87.69% # Number of insts commited each cycle
system.cpu.commit.committed_per_cycle::3        77010      3.55%     91.25% # Number of insts commited each cycle
system.cpu.commit.committed_per_cycle::4        43683      2.02%     93.26% # Number of insts commited each cycle
system.cpu.commit.committed_per_cycle::5        27101      1.25%     94.51% # Number of insts commited each cycle
system.cpu.commit.committed_per_cycle::6        17825      0.82%     95.34% # Number of insts commited each cycle
system.cpu.commit.committed_per_cycle::7        12305      0.57%     95.90% # Number of insts commited each cycle
system.cpu.commit.committed_per_cycle::8        88786      4.10%    100.00% # Number of insts commited each cycle
system.cpu.commit.committed_per_cycle::overflows            0      0.00%    100.00% # Number of insts commited each cycle
system.cpu.commit.committed_per_cycle::min_value            0                       # Number of insts commited each cycle
system.cpu.commit.committed_per_cycle::max_value            8                       # Number of insts commited each cycle
system.cpu.commit.committed_per_cycle::total      2167297                       # Number of insts commited each cycle
system.cpu.commit.committedInsts               953672                       # Number of instructions committed
system.cpu.commit.committedOps                1785230                       # Number of ops (including micro ops) committed
system.cpu.commit.swp_count                         0                       # Number of s/w prefetches committed
system.cpu.commit.refs                         453143                       # Number of memory references committed
system.cpu.commit.loads                        260594                       # Number of loads committed
system.cpu.commit.membars                        1162                       # Number of memory barriers committed
system.cpu.commit.branches                     191451                       # Number of branches committed
system.cpu.commit.vec_insts                         0                       # Number of committed Vector instructions.
system.cpu.commit.fp_insts                       2440                       # Number of committed floating point instructions.
system.cpu.commit.int_insts                   1767396                       # Number of committed integer instructions.
system.cpu.commit.function_calls                20067                       # Number of function calls committed.
system.cpu.commit.op_class_0::No_OpClass        14787      0.83%      0.83% # Class of committed instruction
system.cpu.commit.op_class_0::IntAlu          1312525     73.52%     74.35% # Class of committed instruction
system.cpu.commit.op_class_0::IntMult            1281      0.07%     74.42% # Class of committed instruction
system.cpu.commit.op_class_0::IntDiv             1648      0.09%     74.51% # Class of committed instruction
system.cpu.commit.op_class_0::FloatAdd           1846      0.10%     74.62% # Class of committed instruction
system.cpu.commit.op_class_0::FloatCmp              0      0.00%     74.62% # Class of committed instruction
system.cpu.commit.op_class_0::FloatCvt              0      0.00%     74.62% # Class of committed instruction
system.cpu.commit.op_class_0::FloatMult             0      0.00%     74.62% # Class of committed instruction
system.cpu.commit.op_class_0::FloatMultAcc            0      0.00%     74.62% # Class of committed instruction
system.cpu.commit.op_class_0::FloatDiv              0      0.00%     74.62% # Class of committed instruction
system.cpu.commit.op_class_0::FloatMisc             0      0.00%     74.62% # Class of committed instruction
system.cpu.commit.op_class_0::FloatSqrt             0      0.00%     74.62% # Class of committed instruction
system.cpu.commit.op_class_0::SimdAdd               0      0.00%     74.62% # Class of committed instruction
system.cpu.commit.op_class_0::SimdAddAcc            0      0.00%     74.62% # Class of committed instruction
system.cpu.commit.op_class_0::SimdAlu               0      0.00%     74.62% # Class of committed instruction
system.cpu.commit.op_class_0::SimdCmp               0      0.00%     74.62% # Class of committed instruction
system.cpu.commit.op_class_0::SimdCvt               0      0.00%     74.62% # Class of committed instruction
system.cpu.commit.op_class_0::SimdMisc              0      0.00%     74.62% # Class of committed instruction
system.cpu.commit.op_class_0::SimdMult              0      0.00%     74.62% # Class of committed instruction
system.cpu.commit.op_class_0::SimdMultAcc            0      0.00%     74.62% # Class of committed instruction
system.cpu.commit.op_class_0::SimdShift             0      0.00%     74.62% # Class of committed instruction
system.cpu.commit.op_class_0::SimdShiftAcc            0      0.00%     74.62% # Class of committed instruction
system.cpu.commit.op_class_0::SimdSqrt              0      0.00%     74.62% # Class of committed instruction
system.cpu.commit.op_class_0::SimdFloatAdd            0      0.00%     74.62% # Class of committed instruction
system.cpu.commit.op_class_0::SimdFloatAlu            0      0.00%     74.62% # Class of committed instruction
system.cpu.commit.op_class_0::SimdFloatCmp            0      0.00%     74.62% # Class of committed instruction
system.cpu.commit.op_class_0::SimdFloatCvt            0      0.00%     74.62% # Class of committed instruction
system.cpu.commit.op_class_0::SimdFloatDiv            0      0.00%     74.62% # Class of committed instruction
system.cpu.commit.op_class_0::SimdFloatMisc            0      0.00%     74.62% # Class of committed instruction
system.cpu.commit.op_class_0::SimdFloatMult            0      0.00%     74.62% # Class of committed instruction
system.cpu.commit.op_class_0::SimdFloatMultAcc            0      0.00%     74.62% # Class of committed instruction
system.cpu.commit.op_class_0::SimdFloatSqrt            0      0.00%     74.62% # Class of committed instruction
system.cpu.commit.op_class_0::MemRead          260134     14.57%     89.19% # Class of committed instruction
system.cpu.commit.op_class_0::MemWrite         192549     10.79%     99.97% # Class of committed instruction
system.cpu.commit.op_class_0::FloatMemRead          460      0.03%    100.00% # Class of committed instruction
system.cpu.commit.op_class_0::FloatMemWrite            0      0.00%    100.00% # Class of committed instruction
system.cpu.commit.op_class_0::IprAccess             0      0.00%    100.00% # Class of committed instruction
system.cpu.commit.op_class_0::InstPrefetch            0      0.00%    100.00% # Class of committed instruction
system.cpu.commit.op_class_0::total           1785230                       # Class of committed instruction
system.cpu.commit.bw_lim_events                 88786                       # number cycles where commit BW limit reached
system.cpu.rob.rob_reads                      5036908                       # The number of ROB reads
system.cpu.rob.rob_writes                     6126904                       # The number of ROB writes
system.cpu.timesIdled                            7230                       # Number of times that the entire CPU went into an idle state and unscheduled itself
system.cpu.idleCycles                          136990                       # Total number of cycles that the CPU has spent unscheduled due to idling
system.cpu.committedInsts                      953672                       # Number of Instructions Simulated
system.cpu.committedOps                       1785230                       # Number of Ops (including micro ops) Simulated
system.cpu.cpi                               2.620896                       # CPI: Cycles Per Instruction
system.cpu.cpi_total                         2.620896                       # CPI: Total CPI of All Threads
system.cpu.ipc                               0.381549                       # IPC: Instructions Per Cycle
system.cpu.ipc_total                         0.381549                       # IPC: Total IPC of All Threads
system.cpu.int_regfile_reads                  3610702                       # number of integer regfile reads
system.cpu.int_regfile_writes                 1907327                       # number of integer regfile writes
system.cpu.fp_regfile_reads                      7200                       # number of floating regfile reads
system.cpu.fp_regfile_writes                     3836                       # number of floating regfile writes
system.cpu.cc_regfile_reads                   1099346                       # number of cc regfile reads
system.cpu.cc_regfile_writes                   707518                       # number of cc regfile writes
system.cpu.misc_regfile_reads                 1110985                       # number of misc regfile reads
system.cpu.misc_regfile_writes                  13121                       # number of misc regfile writes
system.cpu.dcache.tags.pwrStateResidencyTicks::UNDEFINED 4791280559000                       # Cumulative time (in ticks) in various power states
system.cpu.dcache.tags.replacements             21630                       # number of replacements
system.cpu.dcache.tags.tagsinuse                 1024                       # Cycle average of tags in use
system.cpu.dcache.tags.total_refs              483866                       # Total number of references to valid blocks.
system.cpu.dcache.tags.sampled_refs             21630                       # Sample count of references to valid blocks.
system.cpu.dcache.tags.avg_refs             22.370134                       # Average number of references to valid blocks.
system.cpu.dcache.tags.warmup_cycle                 0                       # Cycle when the warmup percentage was hit.
system.cpu.dcache.tags.occ_blocks::cpu.data         1024                       # Average occupied blocks per requestor
system.cpu.dcache.tags.occ_percent::cpu.data            1                       # Average percentage of cache occupancy
system.cpu.dcache.tags.occ_percent::total            1                       # Average percentage of cache occupancy
system.cpu.dcache.tags.occ_task_id_blocks::1024         1024                       # Occupied blocks per task id
system.cpu.dcache.tags.age_task_id_blocks_1024::0           56                       # Occupied blocks per task id
system.cpu.dcache.tags.age_task_id_blocks_1024::1          733                       # Occupied blocks per task id
system.cpu.dcache.tags.age_task_id_blocks_1024::2          234                       # Occupied blocks per task id
system.cpu.dcache.tags.age_task_id_blocks_1024::3            1                       # Occupied blocks per task id
system.cpu.dcache.tags.occ_task_id_percent::1024            1                       # Percentage of cache occupancy per task id
system.cpu.dcache.tags.tag_accesses           1032124                       # Number of tag accesses
system.cpu.dcache.tags.data_accesses          1032124                       # Number of data accesses
system.cpu.dcache.pwrStateResidencyTicks::UNDEFINED 4791280559000                       # Cumulative time (in ticks) in various power states
system.cpu.dcache.ReadReq_hits::cpu.data       286046                       # number of ReadReq hits
system.cpu.dcache.ReadReq_hits::total          286046                       # number of ReadReq hits
system.cpu.dcache.WriteReq_hits::cpu.data       183284                       # number of WriteReq hits
system.cpu.dcache.WriteReq_hits::total         183284                       # number of WriteReq hits
system.cpu.dcache.SoftPFReq_hits::cpu.data          554                       # number of SoftPFReq hits
system.cpu.dcache.SoftPFReq_hits::total           554                       # number of SoftPFReq hits
system.cpu.dcache.demand_hits::cpu.data        469330                       # number of demand (read+write) hits
system.cpu.dcache.demand_hits::total           469330                       # number of demand (read+write) hits
system.cpu.dcache.overall_hits::cpu.data       469884                       # number of overall hits
system.cpu.dcache.overall_hits::total          469884                       # number of overall hits
system.cpu.dcache.ReadReq_misses::cpu.data        23225                       # number of ReadReq misses
system.cpu.dcache.ReadReq_misses::total         23225                       # number of ReadReq misses
system.cpu.dcache.WriteReq_misses::cpu.data         9207                       # number of WriteReq misses
system.cpu.dcache.WriteReq_misses::total         9207                       # number of WriteReq misses
system.cpu.dcache.SoftPFReq_misses::cpu.data         2931                       # number of SoftPFReq misses
system.cpu.dcache.SoftPFReq_misses::total         2931                       # number of SoftPFReq misses
system.cpu.dcache.demand_misses::cpu.data        32432                       # number of demand (read+write) misses
system.cpu.dcache.demand_misses::total          32432                       # number of demand (read+write) misses
system.cpu.dcache.overall_misses::cpu.data        35363                       # number of overall misses
system.cpu.dcache.overall_misses::total         35363                       # number of overall misses
system.cpu.dcache.ReadReq_miss_latency::cpu.data    287969500                       # number of ReadReq miss cycles
system.cpu.dcache.ReadReq_miss_latency::total    287969500                       # number of ReadReq miss cycles
system.cpu.dcache.WriteReq_miss_latency::cpu.data    161683985                       # number of WriteReq miss cycles
system.cpu.dcache.WriteReq_miss_latency::total    161683985                       # number of WriteReq miss cycles
system.cpu.dcache.demand_miss_latency::cpu.data    449653485                       # number of demand (read+write) miss cycles
system.cpu.dcache.demand_miss_latency::total    449653485                       # number of demand (read+write) miss cycles
system.cpu.dcache.overall_miss_latency::cpu.data    449653485                       # number of overall miss cycles
system.cpu.dcache.overall_miss_latency::total    449653485                       # number of overall miss cycles
system.cpu.dcache.ReadReq_accesses::cpu.data       309271                       # number of ReadReq accesses(hits+misses)
system.cpu.dcache.ReadReq_accesses::total       309271                       # number of ReadReq accesses(hits+misses)
[...]
system.l2cache.demand_mshr_misses::total         1445                       # number of demand (read+write) MSHR misses
system.l2cache.overall_mshr_misses::cpu.inst          460                       # number of overall MSHR misses
system.l2cache.overall_mshr_misses::cpu.data          985                       # number of overall MSHR misses
system.l2cache.overall_mshr_misses::total         1445                       # number of overall MSHR misses
system.l2cache.ReadReq_mshr_uncacheable::cpu.data          365                       # number of ReadReq MSHR uncacheable
system.l2cache.ReadReq_mshr_uncacheable::total          365                       # number of ReadReq MSHR uncacheable
system.l2cache.WriteReq_mshr_uncacheable::cpu.data          135                       # number of WriteReq MSHR uncacheable
system.l2cache.WriteReq_mshr_uncacheable::total          135                       # number of WriteReq MSHR uncacheable
system.l2cache.overall_mshr_uncacheable_misses::cpu.data          500                       # number of overall MSHR uncacheable misses
system.l2cache.overall_mshr_uncacheable_misses::total          500                       # number of overall MSHR uncacheable misses
system.l2cache.UpgradeReq_mshr_miss_latency::cpu.data     12429497                       # number of UpgradeReq MSHR miss cycles
system.l2cache.UpgradeReq_mshr_miss_latency::total     12429497                       # number of UpgradeReq MSHR miss cycles
system.l2cache.ReadExReq_mshr_miss_latency::cpu.data     44597500                       # number of ReadExReq MSHR miss cycles
system.l2cache.ReadExReq_mshr_miss_latency::total     44597500                       # number of ReadExReq MSHR miss cycles
system.l2cache.ReadSharedReq_mshr_miss_latency::cpu.inst     35673000                       # number of ReadSharedReq MSHR miss cycles
system.l2cache.ReadSharedReq_mshr_miss_latency::cpu.data     24139000                       # number of ReadSharedReq MSHR miss cycles
system.l2cache.ReadSharedReq_mshr_miss_latency::total     59812000                       # number of ReadSharedReq MSHR miss cycles
system.l2cache.demand_mshr_miss_latency::cpu.inst     35673000                       # number of demand (read+write) MSHR miss cycles
system.l2cache.demand_mshr_miss_latency::cpu.data     68736500                       # number of demand (read+write) MSHR miss cycles
system.l2cache.demand_mshr_miss_latency::total    104409500                       # number of demand (read+write) MSHR miss cycles
system.l2cache.overall_mshr_miss_latency::cpu.inst     35673000                       # number of overall MSHR miss cycles
system.l2cache.overall_mshr_miss_latency::cpu.data     68736500                       # number of overall MSHR miss cycles
system.l2cache.overall_mshr_miss_latency::total    104409500                       # number of overall MSHR miss cycles
system.l2cache.ReadReq_mshr_uncacheable_latency::cpu.data     79752500                       # number of ReadReq MSHR uncacheable cycles
system.l2cache.ReadReq_mshr_uncacheable_latency::total     79752500                       # number of ReadReq MSHR uncacheable cycles
system.l2cache.overall_mshr_uncacheable_latency::cpu.data     79752500                       # number of overall MSHR uncacheable cycles
system.l2cache.overall_mshr_uncacheable_latency::total     79752500                       # number of overall MSHR uncacheable cycles
system.l2cache.UpgradeReq_mshr_miss_rate::cpu.data     0.930283                       # mshr miss rate for UpgradeReq accesses
system.l2cache.UpgradeReq_mshr_miss_rate::total     0.930283                       # mshr miss rate for UpgradeReq accesses
system.l2cache.ReadExReq_mshr_miss_rate::cpu.data     0.055450                       # mshr miss rate for ReadExReq accesses
system.l2cache.ReadExReq_mshr_miss_rate::total     0.055450                       # mshr miss rate for ReadExReq accesses
system.l2cache.ReadSharedReq_mshr_miss_rate::cpu.inst     0.014211                       # mshr miss rate for ReadSharedReq accesses
system.l2cache.ReadSharedReq_mshr_miss_rate::cpu.data     0.010907                       # mshr miss rate for ReadSharedReq accesses
system.l2cache.ReadSharedReq_mshr_miss_rate::total     0.012929                       # mshr miss rate for ReadSharedReq accesses
system.l2cache.demand_mshr_miss_rate::cpu.inst     0.014211                       # mshr miss rate for demand accesses
system.l2cache.demand_mshr_miss_rate::cpu.data     0.028750                       # mshr miss rate for demand accesses
system.l2cache.demand_mshr_miss_rate::total     0.021687                       # mshr miss rate for demand accesses
system.l2cache.overall_mshr_miss_rate::cpu.inst     0.014211                       # mshr miss rate for overall accesses
system.l2cache.overall_mshr_miss_rate::cpu.data     0.028750                       # mshr miss rate for overall accesses
system.l2cache.overall_mshr_miss_rate::total     0.021687                       # mshr miss rate for overall accesses
system.l2cache.UpgradeReq_avg_mshr_miss_latency::cpu.data 14554.446136                       # average UpgradeReq mshr miss latency
system.l2cache.UpgradeReq_avg_mshr_miss_latency::total 14554.446136                       # average UpgradeReq mshr miss latency
system.l2cache.ReadExReq_avg_mshr_miss_latency::cpu.data 58603.810775                       # average ReadExReq mshr miss latency
system.l2cache.ReadExReq_avg_mshr_miss_latency::total 58603.810775                       # average ReadExReq mshr miss latency
system.l2cache.ReadSharedReq_avg_mshr_miss_latency::cpu.inst        77550                       # average ReadSharedReq mshr miss latency
system.l2cache.ReadSharedReq_avg_mshr_miss_latency::cpu.data 107763.392857                       # average ReadSharedReq mshr miss latency
system.l2cache.ReadSharedReq_avg_mshr_miss_latency::total 87444.444444                       # average ReadSharedReq mshr miss latency
system.l2cache.demand_avg_mshr_miss_latency::cpu.inst        77550                       # average overall mshr miss latency
system.l2cache.demand_avg_mshr_miss_latency::cpu.data 69783.248731                       # average overall mshr miss latency
system.l2cache.demand_avg_mshr_miss_latency::total 72255.709343                       # average overall mshr miss latency
system.l2cache.overall_avg_mshr_miss_latency::cpu.inst        77550                       # average overall mshr miss latency
system.l2cache.overall_avg_mshr_miss_latency::cpu.data 69783.248731                       # average overall mshr miss latency
system.l2cache.overall_avg_mshr_miss_latency::total 72255.709343                       # average overall mshr miss latency
system.l2cache.ReadReq_avg_mshr_uncacheable_latency::cpu.data       218500                       # average ReadReq mshr uncacheable latency
system.l2cache.ReadReq_avg_mshr_uncacheable_latency::total       218500                       # average ReadReq mshr uncacheable latency
system.l2cache.overall_avg_mshr_uncacheable_latency::cpu.data       159505                       # average overall mshr uncacheable latency
system.l2cache.overall_avg_mshr_uncacheable_latency::total       159505                       # average overall mshr uncacheable latency
system.membus.snoop_filter.tot_requests         36507                       # Total number of requests made to the snoop filter.
system.membus.snoop_filter.hit_single_requests        35195                       # Number of requests hitting in the snoop filter with a single holder of the requested data.
system.membus.snoop_filter.hit_multi_requests            0                       # Number of requests hitting in the snoop filter with multiple (>1) holders of the requested data.
system.membus.snoop_filter.tot_snoops               0                       # Total number of snoops made to the snoop filter.
system.membus.snoop_filter.hit_single_snoops            0                       # Number of snoops hitting in the snoop filter with a single holder of the requested data.
system.membus.snoop_filter.hit_multi_snoops            0                       # Number of snoops hitting in the snoop filter with multiple (>1) holders of the requested data.
system.membus.pwrStateResidencyTicks::UNDEFINED 4791906237500                       # Cumulative time (in ticks) in various power states
system.membus.trans_dist::ReadReq               36866                       # Transaction distribution
system.membus.trans_dist::ReadResp              37550                       # Transaction distribution
system.membus.trans_dist::WriteReq                135                       # Transaction distribution
system.membus.trans_dist::WriteResp               135                       # Transaction distribution
system.membus.trans_dist::WritebackDirty          583                       # Transaction distribution
system.membus.trans_dist::CleanEvict              600                       # Transaction distribution
system.membus.trans_dist::UpgradeReq              987                       # Transaction distribution
system.membus.trans_dist::ReadExReq               628                       # Transaction distribution
system.membus.trans_dist::ReadExResp              628                       # Transaction distribution
system.membus.trans_dist::ReadSharedReq           684                       # Transaction distribution
system.membus.trans_dist::MessageReq              123                       # Transaction distribution
system.membus.trans_dist::MessageResp             123                       # Transaction distribution
system.membus.pkt_count_system.apicbridge.master::system.cpu.interrupts.int_slave          246                       # Packet count per connected master and slave (bytes)
system.membus.pkt_count_system.apicbridge.master::total          246                       # Packet count per connected master and slave (bytes)
system.membus.pkt_count_system.l2cache.mem_side::system.bridge.slave          984                       # Packet count per connected master and slave (bytes)
system.membus.pkt_count_system.l2cache.mem_side::system.mem_cntrl.port         4794                       # Packet count per connected master and slave (bytes)
system.membus.pkt_count_system.l2cache.mem_side::system.cpu.interrupts.pio           16                       # Packet count per connected master and slave (bytes)
system.membus.pkt_count_system.l2cache.mem_side::total         5794                       # Packet count per connected master and slave (bytes)
system.membus.pkt_count_system.cpu.itb.walker.port::system.mem_cntrl.port         7645                       # Packet count per connected master and slave (bytes)
system.membus.pkt_count_system.cpu.itb.walker.port::total         7645                       # Packet count per connected master and slave (bytes)
system.membus.pkt_count_system.cpu.dtb.walker.port::system.mem_cntrl.port        32385                       # Packet count per connected master and slave (bytes)
system.membus.pkt_count_system.cpu.dtb.walker.port::total        32385                       # Packet count per connected master and slave (bytes)
system.membus.pkt_count::total                  46070                       # Packet count per connected master and slave (bytes)
system.membus.pkt_size_system.apicbridge.master::system.cpu.interrupts.int_slave          492                       # Cumulative packet size per connected master and slave (bytes)
system.membus.pkt_size_system.apicbridge.master::total          492                       # Cumulative packet size per connected master and slave (bytes)
system.membus.pkt_size_system.l2cache.mem_side::system.bridge.slave          492                       # Cumulative packet size per connected master and slave (bytes)
system.membus.pkt_size_system.l2cache.mem_side::system.mem_cntrl.port       121280                       # Cumulative packet size per connected master and slave (bytes)
system.membus.pkt_size_system.l2cache.mem_side::system.cpu.interrupts.pio           32                       # Cumulative packet size per connected master and slave (bytes)
system.membus.pkt_size_system.l2cache.mem_side::total       121804                       # Cumulative packet size per connected master and slave (bytes)
system.membus.pkt_size_system.cpu.itb.walker.port::system.mem_cntrl.port          544                       # Cumulative packet size per connected master and slave (bytes)
system.membus.pkt_size_system.cpu.itb.walker.port::total          544                       # Cumulative packet size per connected master and slave (bytes)
system.membus.pkt_size_system.cpu.dtb.walker.port::system.mem_cntrl.port        27688                       # Cumulative packet size per connected master and slave (bytes)
system.membus.pkt_size_system.cpu.dtb.walker.port::total        27688                       # Cumulative packet size per connected master and slave (bytes)
system.membus.pkt_size::total                  150528                       # Cumulative packet size per connected master and slave (bytes)
system.membus.snoops                            32972                       # Total snoops (count)
system.membus.snoopTraffic                     263776                       # Total snoop traffic (bytes)
system.membus.snoop_fanout::samples             39423                       # Request fanout histogram
system.membus.snoop_fanout::mean             0.837709                       # Request fanout histogram
system.membus.snoop_fanout::stdev            0.368722                       # Request fanout histogram
system.membus.snoop_fanout::underflows              0      0.00%      0.00% # Request fanout histogram
system.membus.snoop_fanout::0                    6398     16.23%     16.23% # Request fanout histogram
system.membus.snoop_fanout::1                   33025     83.77%    100.00% # Request fanout histogram
system.membus.snoop_fanout::2                       0      0.00%    100.00% # Request fanout histogram
system.membus.snoop_fanout::overflows               0      0.00%    100.00% # Request fanout histogram
system.membus.snoop_fanout::min_value               0                       # Request fanout histogram
system.membus.snoop_fanout::max_value               1                       # Request fanout histogram
system.membus.snoop_fanout::total               39423                       # Request fanout histogram
system.membus.reqLayer0.occupancy              309500                       # Layer occupancy (ticks)
system.membus.reqLayer0.utilization               0.0                       # Layer utilization (%)
system.membus.reqLayer1.occupancy            21158997                       # Layer occupancy (ticks)
system.membus.reqLayer1.utilization               1.1                       # Layer utilization (%)
system.membus.reqLayer2.occupancy                8000                       # Layer occupancy (ticks)
system.membus.reqLayer2.utilization               0.0                       # Layer utilization (%)
system.membus.reqLayer3.occupancy              123000                       # Layer occupancy (ticks)
system.membus.reqLayer3.utilization               0.0                       # Layer utilization (%)
system.membus.respLayer1.occupancy              61500                       # Layer occupancy (ticks)
system.membus.respLayer1.utilization              0.0                       # Layer utilization (%)
system.membus.respLayer3.occupancy            3951750                       # Layer occupancy (ticks)
system.membus.respLayer3.utilization              0.2                       # Layer utilization (%)
system.membus.respLayer4.occupancy            7723729                       # Layer occupancy (ticks)
system.membus.respLayer4.utilization              0.4                       # Layer utilization (%)
system.membus.respLayer5.occupancy           29695399                       # Layer occupancy (ticks)
system.membus.respLayer5.utilization              1.6                       # Layer utilization (%)
system.membus.badaddr_responder.pwrStateResidencyTicks::UNDEFINED 4791906237500                       # Cumulative time (in ticks) in various power states
system.pc.behind_pci.pwrStateResidencyTicks::UNDEFINED 4791906237500                       # Cumulative time (in ticks) in various power states
system.pc.com_1.pwrStateResidencyTicks::UNDEFINED 4791906237500                       # Cumulative time (in ticks) in various power states
system.pc.fake_com_2.pwrStateResidencyTicks::UNDEFINED 4791906237500                       # Cumulative time (in ticks) in various power states
system.pc.fake_com_3.pwrStateResidencyTicks::UNDEFINED 4791906237500                       # Cumulative time (in ticks) in various power states
system.pc.fake_com_4.pwrStateResidencyTicks::UNDEFINED 4791906237500                       # Cumulative time (in ticks) in various power states
system.pc.fake_floppy.pwrStateResidencyTicks::UNDEFINED 4791906237500                       # Cumulative time (in ticks) in various power states
system.pc.i_dont_exist1.pwrStateResidencyTicks::UNDEFINED 4791906237500                       # Cumulative time (in ticks) in various power states
system.pc.i_dont_exist2.pwrStateResidencyTicks::UNDEFINED 4791906237500                       # Cumulative time (in ticks) in various power states
system.pc.pci_host.pwrStateResidencyTicks::UNDEFINED 4791906237500                       # Cumulative time (in ticks) in various power states
system.pc.south_bridge.cmos.pwrStateResidencyTicks::UNDEFINED 4791906237500                       # Cumulative time (in ticks) in various power states
system.pc.south_bridge.dma1.pwrStateResidencyTicks::UNDEFINED 4791906237500                       # Cumulative time (in ticks) in various power states
system.pc.south_bridge.pic2.pwrStateResidencyTicks::UNDEFINED 4791906237500                       # Cumulative time (in ticks) in various power states
system.pc.south_bridge.pic1.pwrStateResidencyTicks::UNDEFINED 4791906237500                       # Cumulative time (in ticks) in various power states
system.pc.south_bridge.io_apic.pwrStateResidencyTicks::UNDEFINED 4791906237500                       # Cumulative time (in ticks) in various power states
system.pc.south_bridge.keyboard.pwrStateResidencyTicks::UNDEFINED 4791906237500                       # Cumulative time (in ticks) in various power states
system.pc.south_bridge.pit.pwrStateResidencyTicks::UNDEFINED 4791906237500                       # Cumulative time (in ticks) in various power states
system.pc.south_bridge.speaker.pwrStateResidencyTicks::UNDEFINED 4791906237500                       # Cumulative time (in ticks) in various power states
system.pc.south_bridge.ide.disks.dma_read_full_pages            0                       # Number of full page size DMA reads (not PRD).
system.pc.south_bridge.ide.disks.dma_read_bytes            0                       # Number of bytes transfered via DMA reads (not PRD).
system.pc.south_bridge.ide.disks.dma_read_txs            0                       # Number of DMA read transactions (not PRD).
system.pc.south_bridge.ide.disks.dma_write_full_pages            0                       # Number of full page size DMA writes.
system.pc.south_bridge.ide.disks.dma_write_bytes            0                       # Number of bytes transfered via DMA writes.
system.pc.south_bridge.ide.disks.dma_write_txs            0                       # Number of DMA write transactions.
system.pc.south_bridge.ide.pwrStateResidencyTicks::UNDEFINED 4791906237500                       # Cumulative time (in ticks) in various power states
system.cpu.kern.inst.arm                            0                       # number of arm instructions executed
system.cpu.kern.inst.quiesce                        0                       # number of quiesce instructions executed

---------- End Simulation Statistics   ----------
