
---------- Begin Simulation Statistics ----------
sim_seconds                                  0.001238                       # Number of seconds simulated
sim_ticks                                  1238385500                       # Number of ticks simulated
final_tick                               4787213832500                       # Number of ticks from beginning of simulation (restored from checkpoints and never reset)
sim_freq                                 1000000000000                       # Frequency of simulated ticks
host_inst_rate                               31542018                       # Simulator instruction rate (inst/s)
host_op_rate                                 73711812                       # Simulator op (including micro ops) rate (op/s)
host_tick_rate                               26308515                       # Simulator tick rate (ticks/s)
host_mem_usage                                1515128                       # Number of bytes of host memory used
host_seconds                                    47.07                       # Real time elapsed on the host
sim_insts                                  1484733742                       # Number of instructions simulated
sim_ops                                    3469735838                       # Number of ops (including micro ops) simulated
system.clk_domain.voltage_domain.voltage            1                       # Voltage in Volts
system.clk_domain.clock                           500                       # Clock period in ticks
system.mem_cntrl.pwrStateResidencyTicks::UNDEFINED 4787213832500                       # Cumulative time (in ticks) in various power states
system.mem_cntrl.bytes_read::cpu.dtb.walker        16128                       # Number of bytes read from this memory
system.mem_cntrl.bytes_read::cpu.itb.walker          368                       # Number of bytes read from this memory
system.mem_cntrl.bytes_read::cpu.inst           30848                       # Number of bytes read from this memory
system.mem_cntrl.bytes_read::cpu.data           43520                       # Number of bytes read from this memory
system.mem_cntrl.bytes_read::total              90864                       # Number of bytes read from this memory
system.mem_cntrl.bytes_inst_read::cpu.inst        30848                       # Number of instructions bytes read from this memory
system.mem_cntrl.bytes_inst_read::total         30848                       # Number of instructions bytes read from this memory
system.mem_cntrl.bytes_written::writebacks        27776                       # Number of bytes written to this memory
system.mem_cntrl.bytes_written::total           27776                       # Number of bytes written to this memory
system.mem_cntrl.num_reads::cpu.dtb.walker         2016                       # Number of read requests responded to by this memory
system.mem_cntrl.num_reads::cpu.itb.walker           46                       # Number of read requests responded to by this memory
system.mem_cntrl.num_reads::cpu.inst              482                       # Number of read requests responded to by this memory
system.mem_cntrl.num_reads::cpu.data              680                       # Number of read requests responded to by this memory
system.mem_cntrl.num_reads::total                3224                       # Number of read requests responded to by this memory
system.mem_cntrl.num_writes::writebacks           434                       # Number of write requests responded to by this memory
system.mem_cntrl.num_writes::total                434                       # Number of write requests responded to by this memory
system.mem_cntrl.bw_read::cpu.dtb.walker     13023408                       # Total read bandwidth from this memory (bytes/s)
system.mem_cntrl.bw_read::cpu.itb.walker       297161                       # Total read bandwidth from this memory (bytes/s)
system.mem_cntrl.bw_read::cpu.inst           24909852                       # Total read bandwidth from this memory (bytes/s)
system.mem_cntrl.bw_read::cpu.data           35142530                       # Total read bandwidth from this memory (bytes/s)
system.mem_cntrl.bw_read::total              73372952                       # Total read bandwidth from this memory (bytes/s)
system.mem_cntrl.bw_inst_read::cpu.inst      24909852                       # Instruction read bandwidth from this memory (bytes/s)
system.mem_cntrl.bw_inst_read::total         24909852                       # Instruction read bandwidth from this memory (bytes/s)
system.mem_cntrl.bw_write::writebacks        22429203                       # Write bandwidth from this memory (bytes/s)
system.mem_cntrl.bw_write::total             22429203                       # Write bandwidth from this memory (bytes/s)
system.mem_cntrl.bw_total::writebacks        22429203                       # Total bandwidth to/from this memory (bytes/s)
system.mem_cntrl.bw_total::cpu.dtb.walker     13023408                       # Total bandwidth to/from this memory (bytes/s)
system.mem_cntrl.bw_total::cpu.itb.walker       297161                       # Total bandwidth to/from this memory (bytes/s)
system.mem_cntrl.bw_total::cpu.inst          24909852                       # Total bandwidth to/from this memory (bytes/s)
system.mem_cntrl.bw_total::cpu.data          35142530                       # Total bandwidth to/from this memory (bytes/s)
system.mem_cntrl.bw_total::total             95802155                       # Total bandwidth to/from this memory (bytes/s)
system.mem_cntrl.readReqs                        3224                       # Number of read requests accepted
system.mem_cntrl.writeReqs                        434                       # Number of write requests accepted
system.mem_cntrl.readBursts                      3224                       # Number of DRAM read bursts, including those serviced by the write queue
system.mem_cntrl.writeBursts                      434                       # Number of DRAM write bursts, including those merged in the write queue
system.mem_cntrl.bytesReadDRAM                 205824                       # Total number of bytes read from DRAM
system.mem_cntrl.bytesReadWrQ                     512                       # Total number of bytes read from write queue
system.mem_cntrl.bytesWritten                   27712                       # Total number of bytes written to DRAM
system.mem_cntrl.bytesReadSys                   90864                       # Total read bytes from the system interface side
system.mem_cntrl.bytesWrittenSys                27776                       # Total written bytes from the system interface side
system.mem_cntrl.servicedByWrQ                      8                       # Number of DRAM read bursts serviced by the write queue
system.mem_cntrl.mergedWrBursts                     0                       # Number of DRAM write bursts merged with an existing one
system.mem_cntrl.neitherReadNorWriteReqs            0                       # Number of requests that are neither read nor write
system.mem_cntrl.perBankRdBursts::0               170                       # Per bank write bursts
system.mem_cntrl.perBankRdBursts::1                55                       # Per bank write bursts
system.mem_cntrl.perBankRdBursts::2                21                       # Per bank write bursts
system.mem_cntrl.perBankRdBursts::3                17                       # Per bank write bursts
system.mem_cntrl.perBankRdBursts::4               285                       # Per bank write bursts
system.mem_cntrl.perBankRdBursts::5               282                       # Per bank write bursts
system.mem_cntrl.perBankRdBursts::6               806                       # Per bank write bursts
system.mem_cntrl.perBankRdBursts::7               186                       # Per bank write bursts
system.mem_cntrl.perBankRdBursts::8               644                       # Per bank write bursts
system.mem_cntrl.perBankRdBursts::9               181                       # Per bank write bursts
system.mem_cntrl.perBankRdBursts::10              159                       # Per bank write bursts
system.mem_cntrl.perBankRdBursts::11              116                       # Per bank write bursts
system.mem_cntrl.perBankRdBursts::12               38                       # Per bank write bursts
system.mem_cntrl.perBankRdBursts::13               80                       # Per bank write bursts
system.mem_cntrl.perBankRdBursts::14              105                       # Per bank write bursts
system.mem_cntrl.perBankRdBursts::15               71                       # Per bank write bursts
system.mem_cntrl.perBankWrBursts::0                47                       # Per bank write bursts
system.mem_cntrl.perBankWrBursts::1                39                       # Per bank write bursts
system.mem_cntrl.perBankWrBursts::2                 9                       # Per bank write bursts
system.mem_cntrl.perBankWrBursts::3                12                       # Per bank write bursts
system.mem_cntrl.perBankWrBursts::4                 8                       # Per bank write bursts
system.mem_cntrl.perBankWrBursts::5                38                       # Per bank write bursts
system.mem_cntrl.perBankWrBursts::6                12                       # Per bank write bursts
system.mem_cntrl.perBankWrBursts::7                41                       # Per bank write bursts
system.mem_cntrl.perBankWrBursts::8                 8                       # Per bank write bursts
system.mem_cntrl.perBankWrBursts::9                68                       # Per bank write bursts
system.mem_cntrl.perBankWrBursts::10               35                       # Per bank write bursts
system.mem_cntrl.perBankWrBursts::11               33                       # Per bank write bursts
system.mem_cntrl.perBankWrBursts::12               14                       # Per bank write bursts
system.mem_cntrl.perBankWrBursts::13               25                       # Per bank write bursts
system.mem_cntrl.perBankWrBursts::14               26                       # Per bank write bursts
system.mem_cntrl.perBankWrBursts::15               18                       # Per bank write bursts
system.mem_cntrl.numRdRetry                         0                       # Number of times read queue was full causing retry
system.mem_cntrl.numWrRetry                         0                       # Number of times write queue was full causing retry
system.mem_cntrl.totGap                    1236527500                       # Total gap between requests
system.mem_cntrl.readPktSize::0                     0                       # Read request sizes (log2)
system.mem_cntrl.readPktSize::1                     0                       # Read request sizes (log2)
system.mem_cntrl.readPktSize::2                     0                       # Read request sizes (log2)
system.mem_cntrl.readPktSize::3                  2062                       # Read request sizes (log2)
system.mem_cntrl.readPktSize::4                     0                       # Read request sizes (log2)
system.mem_cntrl.readPktSize::5                     0                       # Read request sizes (log2)
system.mem_cntrl.readPktSize::6                  1162                       # Read request sizes (log2)
system.mem_cntrl.writePktSize::0                    0                       # Write request sizes (log2)
system.mem_cntrl.writePktSize::1                    0                       # Write request sizes (log2)
system.mem_cntrl.writePktSize::2                    0                       # Write request sizes (log2)
system.mem_cntrl.writePktSize::3                    0                       # Write request sizes (log2)
system.mem_cntrl.writePktSize::4                    0                       # Write request sizes (log2)
system.mem_cntrl.writePktSize::5                    0                       # Write request sizes (log2)
system.mem_cntrl.writePktSize::6                  434                       # Write request sizes (log2)
system.mem_cntrl.rdQLenPdf::0                    2990                       # What read queue length does an incoming req see
system.mem_cntrl.rdQLenPdf::1                     201                       # What read queue length does an incoming req see
system.mem_cntrl.rdQLenPdf::2                      23                       # What read queue length does an incoming req see
system.mem_cntrl.rdQLenPdf::3                       2                       # What read queue length does an incoming req see
system.mem_cntrl.rdQLenPdf::4                       0                       # What read queue length does an incoming req see
system.mem_cntrl.rdQLenPdf::5                       0                       # What read queue length does an incoming req see
system.mem_cntrl.rdQLenPdf::6                       0                       # What read queue length does an incoming req see
system.mem_cntrl.rdQLenPdf::7                       0                       # What read queue length does an incoming req see
system.mem_cntrl.rdQLenPdf::8                       0                       # What read queue length does an incoming req see
system.mem_cntrl.rdQLenPdf::9                       0                       # What read queue length does an incoming req see
system.mem_cntrl.rdQLenPdf::10                      0                       # What read queue length does an incoming req see
system.mem_cntrl.rdQLenPdf::11                      0                       # What read queue length does an incoming req see
system.mem_cntrl.rdQLenPdf::12                      0                       # What read queue length does an incoming req see
system.mem_cntrl.rdQLenPdf::13                      0                       # What read queue length does an incoming req see
system.mem_cntrl.rdQLenPdf::14                      0                       # What read queue length does an incoming req see
system.mem_cntrl.rdQLenPdf::15                      0                       # What read queue length does an incoming req see
system.mem_cntrl.rdQLenPdf::16                      0                       # What read queue length does an incoming req see
system.mem_cntrl.rdQLenPdf::17                      0                       # What read queue length does an incoming req see
system.mem_cntrl.rdQLenPdf::18                      0                       # What read queue length does an incoming req see
system.mem_cntrl.rdQLenPdf::19                      0                       # What read queue length does an incoming req see
system.mem_cntrl.rdQLenPdf::20                      0                       # What read queue length does an incoming req see
system.mem_cntrl.rdQLenPdf::21                      0                       # What read queue length does an incoming req see
system.mem_cntrl.rdQLenPdf::22                      0                       # What read queue length does an incoming req see
system.mem_cntrl.rdQLenPdf::23                      0                       # What read queue length does an incoming req see
system.mem_cntrl.rdQLenPdf::24                      0                       # What read queue length does an incoming req see
system.mem_cntrl.rdQLenPdf::25                      0                       # What read queue length does an incoming req see
system.mem_cntrl.rdQLenPdf::26                      0                       # What read queue length does an incoming req see
system.mem_cntrl.rdQLenPdf::27                      0                       # What read queue length does an incoming req see
system.mem_cntrl.rdQLenPdf::28                      0                       # What read queue length does an incoming req see
system.mem_cntrl.rdQLenPdf::29                      0                       # What read queue length does an incoming req see
system.mem_cntrl.rdQLenPdf::30                      0                       # What read queue length does an incoming req see
system.mem_cntrl.rdQLenPdf::31                      0                       # What read queue length does an incoming req see
system.mem_cntrl.wrQLenPdf::0                       0                       # What write queue length does an incoming req see
system.mem_cntrl.wrQLenPdf::1                       0                       # What write queue length does an incoming req see
system.mem_cntrl.wrQLenPdf::2                       0                       # What write queue length does an incoming req see
system.mem_cntrl.wrQLenPdf::3                       0                       # What write queue length does an incoming req see
system.mem_cntrl.wrQLenPdf::4                       0                       # What write queue length does an incoming req see
system.mem_cntrl.wrQLenPdf::5                       0                       # What write queue length does an incoming req see
system.mem_cntrl.wrQLenPdf::6                       0                       # What write queue length does an incoming req see
system.mem_cntrl.wrQLenPdf::7                       0                       # What write queue length does an incoming req see
system.mem_cntrl.wrQLenPdf::8                       0                       # What write queue length does an incoming req see
system.mem_cntrl.wrQLenPdf::9                       0                       # What write queue length does an incoming req see
system.mem_cntrl.wrQLenPdf::10                      0                       # What write queue length does an incoming req see
system.mem_cntrl.wrQLenPdf::11                      0                       # What write queue length does an incoming req see
system.mem_cntrl.wrQLenPdf::12                      0                       # What write queue length does an incoming req see
system.mem_cntrl.wrQLenPdf::13                      0                       # What write queue length does an incoming req see
system.mem_cntrl.wrQLenPdf::14                      0                       # What write queue length does an incoming req see
system.mem_cntrl.wrQLenPdf::15                      8                       # What write queue length does an incoming req see
system.mem_cntrl.wrQLenPdf::16                      8                       # What write queue length does an incoming req see
system.mem_cntrl.wrQLenPdf::17                     26                       # What write queue length does an incoming req see
system.mem_cntrl.wrQLenPdf::18                     26                       # What write queue length does an incoming req see
system.mem_cntrl.wrQLenPdf::19                     26                       # What write queue length does an incoming req see
system.mem_cntrl.wrQLenPdf::20                     27                       # What write queue length does an incoming req see
system.mem_cntrl.wrQLenPdf::21                     26                       # What write queue length does an incoming req see
system.mem_cntrl.wrQLenPdf::22                     26                       # What write queue length does an incoming req see
system.mem_cntrl.wrQLenPdf::23                     27                       # What write queue length does an incoming req see
system.mem_cntrl.wrQLenPdf::24                     26                       # What write queue length does an incoming req see
system.mem_cntrl.wrQLenPdf::25                     26                       # What write queue length does an incoming req see
system.mem_cntrl.wrQLenPdf::26                     26                       # What write queue length does an incoming req see
system.mem_cntrl.wrQLenPdf::27                     26                       # What write queue length does an incoming req see
system.mem_cntrl.wrQLenPdf::28                     26                       # What write queue length does an incoming req see
system.mem_cntrl.wrQLenPdf::29                     26                       # What write queue length does an incoming req see
system.mem_cntrl.wrQLenPdf::30                     26                       # What write queue length does an incoming req see
system.mem_cntrl.wrQLenPdf::31                     26                       # What write queue length does an incoming req see
system.mem_cntrl.wrQLenPdf::32                     26                       # What write queue length does an incoming req see
system.mem_cntrl.wrQLenPdf::33                      0                       # What write queue length does an incoming req see
system.mem_cntrl.wrQLenPdf::34                      0                       # What write queue length does an incoming req see
system.mem_cntrl.wrQLenPdf::35                      0                       # What write queue length does an incoming req see
system.mem_cntrl.wrQLenPdf::36                      0                       # What write queue length does an incoming req see
system.mem_cntrl.wrQLenPdf::37                      0                       # What write queue length does an incoming req see
system.mem_cntrl.wrQLenPdf::38                      0                       # What write queue length does an incoming req see
system.mem_cntrl.wrQLenPdf::39                      0                       # What write queue length does an incoming req see
system.mem_cntrl.wrQLenPdf::40                      0                       # What write queue length does an incoming req see
system.mem_cntrl.wrQLenPdf::41                      0                       # What write queue length does an incoming req see
system.mem_cntrl.wrQLenPdf::42                      0                       # What write queue length does an incoming req see
system.mem_cntrl.wrQLenPdf::43                      0                       # What write queue length does an incoming req see
system.mem_cntrl.wrQLenPdf::44                      0                       # What write queue length does an incoming req see
system.mem_cntrl.wrQLenPdf::45                      0                       # What write queue length does an incoming req see
system.mem_cntrl.wrQLenPdf::46                      0                       # What write queue length does an incoming req see
system.mem_cntrl.wrQLenPdf::47                      0                       # What write queue length does an incoming req see
system.mem_cntrl.wrQLenPdf::48                      0                       # What write queue length does an incoming req see
system.mem_cntrl.wrQLenPdf::49                      0                       # What write queue length does an incoming req see
system.mem_cntrl.wrQLenPdf::50                      0                       # What write queue length does an incoming req see
system.mem_cntrl.wrQLenPdf::51                      0                       # What write queue length does an incoming req see
system.mem_cntrl.wrQLenPdf::52                      0                       # What write queue length does an incoming req see
system.mem_cntrl.wrQLenPdf::53                      0                       # What write queue length does an incoming req see
system.mem_cntrl.wrQLenPdf::54                      0                       # What write queue length does an incoming req see
system.mem_cntrl.wrQLenPdf::55                      0                       # What write queue length does an incoming req see
system.mem_cntrl.wrQLenPdf::56                      0                       # What write queue length does an incoming req see
system.mem_cntrl.wrQLenPdf::57                      0                       # What write queue length does an incoming req see
system.mem_cntrl.wrQLenPdf::58                      0                       # What write queue length does an incoming req see
system.mem_cntrl.wrQLenPdf::59                      0                       # What write queue length does an incoming req see
system.mem_cntrl.wrQLenPdf::60                      0                       # What write queue length does an incoming req see
system.mem_cntrl.wrQLenPdf::61                      0                       # What write queue length does an incoming req see
system.mem_cntrl.wrQLenPdf::62                      0                       # What write queue length does an incoming req see
system.mem_cntrl.wrQLenPdf::63                      0                       # What write queue length does an incoming req see
system.mem_cntrl.bytesPerActivate::samples         1062                       # Bytes accessed per row activation
system.mem_cntrl.bytesPerActivate::mean    219.661017                       # Bytes accessed per row activation
system.mem_cntrl.bytesPerActivate::gmean   134.772656                       # Bytes accessed per row activation
system.mem_cntrl.bytesPerActivate::stdev   263.744267                       # Bytes accessed per row activation
system.mem_cntrl.bytesPerActivate::0-127          521     49.06%     49.06% # Bytes accessed per row activation
system.mem_cntrl.bytesPerActivate::128-255          268     25.24%     74.29% # Bytes accessed per row activation
system.mem_cntrl.bytesPerActivate::256-383           85      8.00%     82.30% # Bytes accessed per row activation
system.mem_cntrl.bytesPerActivate::384-511           45      4.24%     86.53% # Bytes accessed per row activation
system.mem_cntrl.bytesPerActivate::512-639           30      2.82%     89.36% # Bytes accessed per row activation
system.mem_cntrl.bytesPerActivate::640-767           26      2.45%     91.81% # Bytes accessed per row activation
system.mem_cntrl.bytesPerActivate::768-895           17      1.60%     93.41% # Bytes accessed per row activation
system.mem_cntrl.bytesPerActivate::896-1023           11      1.04%     94.44% # Bytes accessed per row activation
system.mem_cntrl.bytesPerActivate::1024-1151           59      5.56%    100.00% # Bytes accessed per row activation
system.mem_cntrl.bytesPerActivate::total         1062                       # Bytes accessed per row activation
system.mem_cntrl.rdPerTurnAround::samples           26                       # Reads before turning the bus around for writes
system.mem_cntrl.rdPerTurnAround::mean     123.461538                       # Reads before turning the bus around for writes
system.mem_cntrl.rdPerTurnAround::gmean     89.542106                       # Reads before turning the bus around for writes
system.mem_cntrl.rdPerTurnAround::stdev    116.052826                       # Reads before turning the bus around for writes
system.mem_cntrl.rdPerTurnAround::0-31              2      7.69%      7.69% # Reads before turning the bus around for writes
system.mem_cntrl.rdPerTurnAround::32-63             9     34.62%     42.31% # Reads before turning the bus around for writes
system.mem_cntrl.rdPerTurnAround::64-95             5     19.23%     61.54% # Reads before turning the bus around for writes
system.mem_cntrl.rdPerTurnAround::96-127            3     11.54%     73.08% # Reads before turning the bus around for writes
system.mem_cntrl.rdPerTurnAround::128-159            1      3.85%     76.92% # Reads before turning the bus around for writes
system.mem_cntrl.rdPerTurnAround::192-223            1      3.85%     80.77% # Reads before turning the bus around for writes
system.mem_cntrl.rdPerTurnAround::224-255            1      3.85%     84.62% # Reads before turning the bus around for writes
system.mem_cntrl.rdPerTurnAround::256-287            3     11.54%     96.15% # Reads before turning the bus around for writes
system.mem_cntrl.rdPerTurnAround::544-575            1      3.85%    100.00% # Reads before turning the bus around for writes
system.mem_cntrl.rdPerTurnAround::total            26                       # Reads before turning the bus around for writes
system.mem_cntrl.wrPerTurnAround::samples           26                       # Writes before turning the bus around for reads
system.mem_cntrl.wrPerTurnAround::mean      16.653846                       # Writes before turning the bus around for reads
system.mem_cntrl.wrPerTurnAround::gmean     16.629220                       # Writes before turning the bus around for reads
system.mem_cntrl.wrPerTurnAround::stdev      0.935620                       # Writes before turning the bus around for reads
system.mem_cntrl.wrPerTurnAround::16               17     65.38%     65.38% # Writes before turning the bus around for reads
system.mem_cntrl.wrPerTurnAround::17                1      3.85%     69.23% # Writes before turning the bus around for reads
system.mem_cntrl.wrPerTurnAround::18                8     30.77%    100.00% # Writes before turning the bus around for reads
system.mem_cntrl.wrPerTurnAround::total            26                       # Writes before turning the bus around for reads
system.mem_cntrl.totQLat                     64661250                       # Total ticks spent queuing
system.mem_cntrl.totMemAccLat               124961250                       # Total ticks spent from burst creation until serviced by the DRAM
system.mem_cntrl.totBusLat                   16080000                       # Total ticks spent in databus transfers
system.mem_cntrl.avgQLat                     20106.11                       # Average queueing delay per DRAM burst
system.mem_cntrl.avgBusLat                    5000.00                       # Average bus latency per DRAM burst
system.mem_cntrl.avgMemAccLat                38856.11                       # Average memory access latency per DRAM burst
system.mem_cntrl.avgRdBW                       166.20                       # Average DRAM read bandwidth in MiByte/s
system.mem_cntrl.avgWrBW                        22.38                       # Average achieved write bandwidth in MiByte/s
system.mem_cntrl.avgRdBWSys                     73.37                       # Average system read bandwidth in MiByte/s
system.mem_cntrl.avgWrBWSys                     22.43                       # Average system write bandwidth in MiByte/s
system.mem_cntrl.peakBW                      12800.00                       # Theoretical peak bandwidth in MiByte/s
system.mem_cntrl.busUtil                         1.47                       # Data bus utilization in percentage
system.mem_cntrl.busUtilRead                     1.30                       # Data bus utilization in percentage for reads
system.mem_cntrl.busUtilWrite                    0.17                       # Data bus utilization in percentage for writes
system.mem_cntrl.avgRdQLen                       1.06                       # Average read queue length when enqueuing
system.mem_cntrl.avgWrQLen                      25.87                       # Average write queue length when enqueuing
system.mem_cntrl.readRowHits                     2403                       # Number of row buffer hits during reads
system.mem_cntrl.writeRowHits                     184                       # Number of row buffer hits during writes
system.mem_cntrl.readRowHitRate                 74.72                       # Row buffer hit rate for reads
system.mem_cntrl.writeRowHitRate                42.40                       # Row buffer hit rate for writes
system.mem_cntrl.avgGap                     338033.76                       # Average gap between requests
system.mem_cntrl.pageHitRate                    70.88                       # Row buffer hit rate, read and write combined
system.mem_cntrl_0.actEnergy                  4333980                       # Energy for activate commands per rank (pJ)
system.mem_cntrl_0.preEnergy                  2292180                       # Energy for precharge commands per rank (pJ)
system.mem_cntrl_0.readEnergy                13016220                       # Energy for read commands per rank (pJ)
system.mem_cntrl_0.writeEnergy                1075320                       # Energy for write commands per rank (pJ)
system.mem_cntrl_0.refreshEnergy         90966720.000000                       # Energy for refresh commands per rank (pJ)
system.mem_cntrl_0.actBackEnergy             52511250                       # Energy for active background per rank (pJ)
system.mem_cntrl_0.preBackEnergy              2853120                       # Energy for precharge background per rank (pJ)
system.mem_cntrl_0.actPowerDownEnergy       316607070                       # Energy for active power-down per rank (pJ)
system.mem_cntrl_0.prePowerDownEnergy       103475040                       # Energy for precharge power-down per rank (pJ)
system.mem_cntrl_0.selfRefreshEnergy         42489600                       # Energy for self refresh per rank (pJ)
system.mem_cntrl_0.totalEnergy              629620500                       # Total energy per rank (pJ)
system.mem_cntrl_0.averagePower            508.420439                       # Core power per rank (mW)
system.mem_cntrl_0.totalIdleTime           1113963750                       # Total Idle time Per DRAM Rank
system.mem_cntrl_0.memoryStateTime::IDLE      3414000                       # Time in different power states
system.mem_cntrl_0.memoryStateTime::REF      38540000                       # Time in different power states
system.mem_cntrl_0.memoryStateTime::SREF    154029500                       # Time in different power states
system.mem_cntrl_0.memoryStateTime::PRE_PDN    267988500                       # Time in different power states
system.mem_cntrl_0.memoryStateTime::ACT      80656000                       # Time in different power states
system.mem_cntrl_0.memoryStateTime::ACT_PDN    694245000                       # Time in different power states
system.mem_cntrl_1.actEnergy                  3270120                       # Energy for activate commands per rank (pJ)
system.mem_cntrl_1.preEnergy                  1738110                       # Energy for precharge commands per rank (pJ)
system.mem_cntrl_1.readEnergy                 9988860                       # Energy for read commands per rank (pJ)
system.mem_cntrl_1.writeEnergy                1184940                       # Energy for write commands per rank (pJ)
system.mem_cntrl_1.refreshEnergy         89122800.000000                       # Energy for refresh commands per rank (pJ)
system.mem_cntrl_1.actBackEnergy             43639770                       # Energy for active background per rank (pJ)
system.mem_cntrl_1.preBackEnergy              3822720                       # Energy for precharge background per rank (pJ)
system.mem_cntrl_1.actPowerDownEnergy       276939630                       # Energy for active power-down per rank (pJ)
system.mem_cntrl_1.prePowerDownEnergy       101638080                       # Energy for precharge power-down per rank (pJ)
system.mem_cntrl_1.selfRefreshEnergy         75378840                       # Energy for self refresh per rank (pJ)
system.mem_cntrl_1.totalEnergy              606723870                       # Total energy per rank (pJ)
system.mem_cntrl_1.averagePower            489.931342                       # Core power per rank (mW)
system.mem_cntrl_1.totalIdleTime           1132180250                       # Total Idle time Per DRAM Rank
system.mem_cntrl_1.memoryStateTime::IDLE      6192000                       # Time in different power states
system.mem_cntrl_1.memoryStateTime::REF      37838000                       # Time in different power states
system.mem_cntrl_1.memoryStateTime::SREF    265753250                       # Time in different power states
system.mem_cntrl_1.memoryStateTime::PRE_PDN    264041000                       # Time in different power states
system.mem_cntrl_1.memoryStateTime::ACT      61483750                       # Time in different power states
system.mem_cntrl_1.memoryStateTime::ACT_PDN    603302000                       # Time in different power states
system.pwrStateResidencyTicks::UNDEFINED 4787213832500                       # Cumulative time (in ticks) in various power states
system.apicbridge.pwrStateResidencyTicks::UNDEFINED 4787213832500                       # Cumulative time (in ticks) in various power states
system.bridge.pwrStateResidencyTicks::UNDEFINED 4787213832500                       # Cumulative time (in ticks) in various power states
system.cpu.branchPred.lookups                  445154                       # Number of BP lookups
system.cpu.branchPred.condPredicted            445154                       # Number of conditional branches predicted
system.cpu.branchPred.condIncorrect             50429                       # Number of conditional branches incorrect
system.cpu.branchPred.BTBLookups               387968                       # Number of BTB lookups
system.cpu.branchPred.BTBHits                       0                       # Number of BTB hits
system.cpu.branchPred.BTBCorrect                    0                       # Number of correct BTB predictions (this stat may not work properly.
system.cpu.branchPred.BTBHitPct              0.000000                       # BTB Hit Percentage
system.cpu.branchPred.usedRAS                   45102                       # Number of times the RAS was used to get a target.
system.cpu.branchPred.RASInCorrect              10054                       # Number of incorrect RAS predictions.
system.cpu.branchPred.correctpredictionPercent    88.671561                       # Correct prediction percentage
system.cpu.branchPred.indirectLookups          387968                       # Number of indirect predictor lookups.
system.cpu.branchPred.indirectHits             110075                       # Number of indirect target hits.
system.cpu.branchPred.indirectMisses           277893                       # Number of indirect misses.
system.cpu.branchPredindirectMispredicted        35805                       # Number of mispredicted indirect branches.
system.cpu.dtb.walker.pwrStateResidencyTicks::UNDEFINED 4787213832500                       # Cumulative time (in ticks) in various power states
system.cpu.dtb.rdAccesses                      359358                       # TLB accesses on read requests
system.cpu.dtb.wrAccesses                      228179                       # TLB accesses on write requests
system.cpu.dtb.rdMisses                          9005                       # TLB misses on read requests
system.cpu.dtb.wrMisses                          1838                       # TLB misses on write requests
system.cpu.apic_clk_domain.clock                 8000                       # Clock period in ticks
system.cpu.interrupts.pwrStateResidencyTicks::UNDEFINED 4787213832500                       # Cumulative time (in ticks) in various power states
system.cpu.itb.walker.pwrStateResidencyTicks::UNDEFINED 4787213832500                       # Cumulative time (in ticks) in various power states
system.cpu.itb.rdAccesses                           0                       # TLB accesses on read requests
system.cpu.itb.wrAccesses                      283973                       # TLB accesses on write requests
system.cpu.itb.rdMisses                             0                       # TLB misses on read requests
system.cpu.itb.wrMisses                          1353                       # TLB misses on write requests
system.cpu.pwrStateResidencyTicks::ON      2503023000                       # Cumulative time (in ticks) in various power states
system.cpu.numCycles                          2476771                       # number of cpu cycles simulated
system.cpu.numWorkItemsStarted                      0                       # number of work items this cpu started
system.cpu.numWorkItemsCompleted                    0                       # number of work items this cpu completed
system.cpu.fetch.icacheStallCycles             574163                       # Number of cycles fetch is stalled on an Icache miss
system.cpu.fetch.Insts                        2010868                       # Number of instructions fetch has processed
system.cpu.fetch.Branches                      445154                       # Number of branches that fetch encountered
system.cpu.fetch.predictedBranches             155177                       # Number of branches that fetch has predicted taken
system.cpu.fetch.Cycles                       1616773                       # Number of cycles fetch has run and was not squashing or blocked
system.cpu.fetch.SquashCycles                  109988                       # Number of cycles fetch has spent squashing
system.cpu.fetch.TlbCycles                      50047                       # Number of cycles fetch has spent waiting for tlb
system.cpu.fetch.MiscStallCycles                 1712                       # Number of cycles fetch has spent waiting on interrupts, or bad addresses, or out of MSHRs
system.cpu.fetch.PendingTrapStallCycles         37811                       # Number of stall cycles due to pending traps
system.cpu.fetch.PendingQuiesceStallCycles          440                       # Number of stall cycles due to pending quiesce instructions
system.cpu.fetch.IcacheWaitRetryStallCycles           13                       # Number of stall cycles due to full MSHR
system.cpu.fetch.CacheLines                    278210                       # Number of cache lines fetched
system.cpu.fetch.IcacheSquashes                 19974                       # Number of outstanding Icache misses that were squashed
system.cpu.fetch.ItlbSquashes                     652                       # Number of outstanding ITLB misses that were squashed
system.cpu.fetch.rateDist::samples            2335953                       # Number of instructions fetched each cycle (Total)
system.cpu.fetch.rateDist::mean              1.699401                       # Number of instructions fetched each cycle (Total)
system.cpu.fetch.rateDist::stdev             3.063946                       # Number of instructions fetched each cycle (Total)
system.cpu.fetch.rateDist::underflows               0      0.00%      0.00% # Number of instructions fetched each cycle (Total)
system.cpu.fetch.rateDist::0                  1697567     72.67%     72.67% # Number of instructions fetched each cycle (Total)
system.cpu.fetch.rateDist::1                    58572      2.51%     75.18% # Number of instructions fetched each cycle (Total)
system.cpu.fetch.rateDist::2                    30970      1.33%     76.50% # Number of instructions fetched each cycle (Total)
system.cpu.fetch.rateDist::3                    38554      1.65%     78.15% # Number of instructions fetched each cycle (Total)
system.cpu.fetch.rateDist::4                    37595      1.61%     79.76% # Number of instructions fetched each cycle (Total)
system.cpu.fetch.rateDist::5                    33496      1.43%     81.20% # Number of instructions fetched each cycle (Total)
system.cpu.fetch.rateDist::6                    33495      1.43%     82.63% # Number of instructions fetched each cycle (Total)
system.cpu.fetch.rateDist::7                    30914      1.32%     83.96% # Number of instructions fetched each cycle (Total)
system.cpu.fetch.rateDist::8                   374790     16.04%    100.00% # Number of instructions fetched each cycle (Total)
system.cpu.fetch.rateDist::overflows                0      0.00%    100.00% # Number of instructions fetched each cycle (Total)
system.cpu.fetch.rateDist::min_value                0                       # Number of instructions fetched each cycle (Total)
system.cpu.fetch.rateDist::max_value                8                       # Number of instructions fetched each cycle (Total)
system.cpu.fetch.rateDist::total              2335953                       # Number of instructions fetched each cycle (Total)
system.cpu.fetch.branchRate                  0.179732                       # Number of branch fetches per cycle
system.cpu.fetch.rate                        0.811891                       # Number of inst fetches per cycle
system.cpu.decode.IdleCycles                   543097                       # Number of cycles decode is idle
system.cpu.decode.BlockedCycles               1212446                       # Number of cycles decode is blocked
system.cpu.decode.RunCycles                    458562                       # Number of cycles decode is running
system.cpu.decode.UnblockCycles                 66854                       # Number of cycles decode is unblocking
system.cpu.decode.SquashCycles                  54994                       # Number of cycles decode is squashing
system.cpu.decode.DecodedInsts                3563444                       # Number of instructions handled by decode
system.cpu.rename.SquashCycles                  54994                       # Number of cycles rename is squashing
system.cpu.rename.IdleCycles                   585709                       # Number of cycles rename is idle
system.cpu.rename.BlockCycles                  543676                       # Number of cycles rename is blocking
system.cpu.rename.serializeStallCycles         371298                       # count of cycles rename stalled for serializing inst
system.cpu.rename.RunCycles                    478464                       # Number of cycles rename is running
system.cpu.rename.UnblockCycles                301812                       # Number of cycles rename is unblocking
system.cpu.rename.RenamedInsts                3342738                       # Number of instructions processed by rename
system.cpu.rename.ROBFullEvents                  3977                       # Number of times rename has blocked due to ROB full
system.cpu.rename.IQFullEvents                  27211                       # Number of times rename has blocked due to IQ full
system.cpu.rename.LQFullEvents                  24413                       # Number of times rename has blocked due to LQ full
system.cpu.rename.SQFullEvents                 230437                       # Number of times rename has blocked due to SQ full
system.cpu.rename.RenamedOperands             3680935                       # Number of destination operands rename has renamed
system.cpu.rename.RenameLookups               8388292                       # Number of register rename lookups that rename has made
system.cpu.rename.int_rename_lookups          5162485                       # Number of integer rename lookups
system.cpu.rename.fp_rename_lookups             12596                       # Number of floating rename lookups
system.cpu.rename.CommittedMaps               1986926                       # Number of HB maps that are committed
system.cpu.rename.UndoneMaps                  1693968                       # Number of HB maps that are undone due to squashing
system.cpu.rename.serializingInsts              14211                       # count of serializing insts renamed
system.cpu.rename.tempSerializingInsts          14246                       # count of temporary serializing insts renamed
system.cpu.rename.skidInsts                    283891                       # count of insts added to the skid buffer
system.cpu.memDep0.insertedLoads               435886                       # Number of loads inserted to the mem dependence unit.
system.cpu.memDep0.insertedStores              278930                       # Number of stores inserted to the mem dependence unit.
system.cpu.memDep0.conflictingLoads             33340                       # Number of conflicting loads.
system.cpu.memDep0.conflictingStores            33029                       # Number of conflicting stores.
system.cpu.iq.iqInstsAdded                    2974066                       # Number of instructions added to the IQ (excludes non-spec)
system.cpu.iq.iqNonSpecInstsAdded               16814                       # Number of non-speculative instructions added to the IQ
system.cpu.iq.iqInstsIssued                   2573496                       # Number of instructions issued
system.cpu.iq.iqSquashedInstsIssued             19591                       # Number of squashed instructions issued
system.cpu.iq.iqSquashedInstsExamined         1212374                       # Number of squashed instructions iterated over during squash; mainly for profiling
system.cpu.iq.iqSquashedOperandsExamined      1761862                       # Number of squashed operands that are examined and possibly removed from graph
system.cpu.iq.iqSquashedNonSpecRemoved           5078                       # Number of squashed non-spec instructions that were removed
system.cpu.iq.issued_per_cycle::samples       2335953                       # Number of insts issued each cycle
system.cpu.iq.issued_per_cycle::mean         1.101690                       # Number of insts issued each cycle
system.cpu.iq.issued_per_cycle::stdev        1.981152                       # Number of insts issued each cycle
system.cpu.iq.issued_per_cycle::underflows            0      0.00%      0.00% # Number of insts issued each cycle
system.cpu.iq.issued_per_cycle::0             1575502     67.45%     67.45% # Number of insts issued each cycle
system.cpu.iq.issued_per_cycle::1              194291      8.32%     75.76% # Number of insts issued each cycle
system.cpu.iq.issued_per_cycle::2              129491      5.54%     81.31% # Number of insts issued each cycle
system.cpu.iq.issued_per_cycle::3              105909      4.53%     85.84% # Number of insts issued each cycle
system.cpu.iq.issued_per_cycle::4               95799      4.10%     89.94% # Number of insts issued each cycle
system.cpu.iq.issued_per_cycle::5               86407      3.70%     93.64% # Number of insts issued each cycle
system.cpu.iq.issued_per_cycle::6               77688      3.33%     96.97% # Number of insts issued each cycle
system.cpu.iq.issued_per_cycle::7               45791      1.96%     98.93% # Number of insts issued each cycle
system.cpu.iq.issued_per_cycle::8               25075      1.07%    100.00% # Number of insts issued each cycle
system.cpu.iq.issued_per_cycle::overflows            0      0.00%    100.00% # Number of insts issued each cycle
system.cpu.iq.issued_per_cycle::min_value            0                       # Number of insts issued each cycle
system.cpu.iq.issued_per_cycle::max_value            8                       # Number of insts issued each cycle
system.cpu.iq.issued_per_cycle::total         2335953                       # Number of insts issued each cycle
system.cpu.iq.fu_full::No_OpClass                   0      0.00%      0.00% # attempts to use FU when none available
system.cpu.iq.fu_full::IntAlu                   25403     66.37%     66.37% # attempts to use FU when none available
system.cpu.iq.fu_full::IntMult                      0      0.00%     66.37% # attempts to use FU when none available
system.cpu.iq.fu_full::IntDiv                       0      0.00%     66.37% # attempts to use FU when none available
system.cpu.iq.fu_full::FloatAdd                    48      0.13%     66.50% # attempts to use FU when none available
system.cpu.iq.fu_full::FloatCmp                     0      0.00%     66.50% # attempts to use FU when none available
system.cpu.iq.fu_full::FloatCvt                     0      0.00%     66.50% # attempts to use FU when none available
system.cpu.iq.fu_full::FloatMult                    0      0.00%     66.50% # attempts to use FU when none available
system.cpu.iq.fu_full::FloatMultAcc                 0      0.00%     66.50% # attempts to use FU when none available
system.cpu.iq.fu_full::FloatDiv                     0      0.00%     66.50% # attempts to use FU when none available
system.cpu.iq.fu_full::FloatMisc                    0      0.00%     66.50% # attempts to use FU when none available
system.cpu.iq.fu_full::FloatSqrt                    0      0.00%     66.50% # attempts to use FU when none available
system.cpu.iq.fu_full::SimdAdd                      0      0.00%     66.50% # attempts to use FU when none available
system.cpu.iq.fu_full::SimdAddAcc                   0      0.00%     66.50% # attempts to use FU when none available
system.cpu.iq.fu_full::SimdAlu                      0      0.00%     66.50% # attempts to use FU when none available
system.cpu.iq.fu_full::SimdCmp                      0      0.00%     66.50% # attempts to use FU when none available
system.cpu.iq.fu_full::SimdCvt                      0      0.00%     66.50% # attempts to use FU when none available
system.cpu.iq.fu_full::SimdMisc                     0      0.00%     66.50% # attempts to use FU when none available
system.cpu.iq.fu_full::SimdMult                     0      0.00%     66.50% # attempts to use FU when none available
system.cpu.iq.fu_full::SimdMultAcc                  0      0.00%     66.50% # attempts to use FU when none available
system.cpu.iq.fu_full::SimdShift                    0      0.00%     66.50% # attempts to use FU when none available
system.cpu.iq.fu_full::SimdShiftAcc                 0      0.00%     66.50% # attempts to use FU when none available
system.cpu.iq.fu_full::SimdSqrt                     0      0.00%     66.50% # attempts to use FU when none available
system.cpu.iq.fu_full::SimdFloatAdd                 0      0.00%     66.50% # attempts to use FU when none available
system.cpu.iq.fu_full::SimdFloatAlu                 0      0.00%     66.50% # attempts to use FU when none available
system.cpu.iq.fu_full::SimdFloatCmp                 0      0.00%     66.50% # attempts to use FU when none available
system.cpu.iq.fu_full::SimdFloatCvt                 0      0.00%     66.50% # attempts to use FU when none available
system.cpu.iq.fu_full::SimdFloatDiv                 0      0.00%     66.50% # attempts to use FU when none available
system.cpu.iq.fu_full::SimdFloatMisc                0      0.00%     66.50% # attempts to use FU when none available
system.cpu.iq.fu_full::SimdFloatMult                0      0.00%     66.50% # attempts to use FU when none available
system.cpu.iq.fu_full::SimdFloatMultAcc             0      0.00%     66.50% # attempts to use FU when none available
system.cpu.iq.fu_full::SimdFloatSqrt                0      0.00%     66.50% # attempts to use FU when none available
system.cpu.iq.fu_full::MemRead                   8980     23.46%     89.96% # attempts to use FU when none available
system.cpu.iq.fu_full::MemWrite                  3804      9.94%     99.90% # attempts to use FU when none available
system.cpu.iq.fu_full::FloatMemRead                11      0.03%     99.93% # attempts to use FU when none available
system.cpu.iq.fu_full::FloatMemWrite               28      0.07%    100.00% # attempts to use FU when none available
system.cpu.iq.fu_full::IprAccess                    0      0.00%    100.00% # attempts to use FU when none available
system.cpu.iq.fu_full::InstPrefetch                 0      0.00%    100.00% # attempts to use FU when none available
system.cpu.iq.FU_type_0::No_OpClass             33890      1.32%      1.32% # Type of FU issued
system.cpu.iq.FU_type_0::IntAlu               1914545     74.39%     75.71% # Type of FU issued
system.cpu.iq.FU_type_0::IntMult                 1454      0.06%     75.77% # Type of FU issued
system.cpu.iq.FU_type_0::IntDiv                  1868      0.07%     75.84% # Type of FU issued
system.cpu.iq.FU_type_0::FloatAdd                3078      0.12%     75.96% # Type of FU issued
system.cpu.iq.FU_type_0::FloatCmp                   0      0.00%     75.96% # Type of FU issued
system.cpu.iq.FU_type_0::FloatCvt                   0      0.00%     75.96% # Type of FU issued
system.cpu.iq.FU_type_0::FloatMult                  0      0.00%     75.96% # Type of FU issued
system.cpu.iq.FU_type_0::FloatMultAcc               0      0.00%     75.96% # Type of FU issued
system.cpu.iq.FU_type_0::FloatDiv                   0      0.00%     75.96% # Type of FU issued
system.cpu.iq.FU_type_0::FloatMisc                  0      0.00%     75.96% # Type of FU issued
system.cpu.iq.FU_type_0::FloatSqrt                  0      0.00%     75.96% # Type of FU issued
system.cpu.iq.FU_type_0::SimdAdd                    0      0.00%     75.96% # Type of FU issued
system.cpu.iq.FU_type_0::SimdAddAcc                 0      0.00%     75.96% # Type of FU issued
system.cpu.iq.FU_type_0::SimdAlu                    0      0.00%     75.96% # Type of FU issued
system.cpu.iq.FU_type_0::SimdCmp                    0      0.00%     75.96% # Type of FU issued
system.cpu.iq.FU_type_0::SimdCvt                    0      0.00%     75.96% # Type of FU issued
system.cpu.iq.FU_type_0::SimdMisc                   0      0.00%     75.96% # Type of FU issued
system.cpu.iq.FU_type_0::SimdMult                   0      0.00%     75.96% # Type of FU issued
system.cpu.iq.FU_type_0::SimdMultAcc                0      0.00%     75.96% # Type of FU issued
system.cpu.iq.FU_type_0::SimdShift                  0      0.00%     75.96% # Type of FU issued
system.cpu.iq.FU_type_0::SimdShiftAcc               0      0.00%     75.96% # Type of FU issued
system.cpu.iq.FU_type_0::SimdSqrt                   0      0.00%     75.96% # Type of FU issued
system.cpu.iq.FU_type_0::SimdFloatAdd               0      0.00%     75.96% # Type of FU issued
system.cpu.iq.FU_type_0::SimdFloatAlu               0      0.00%     75.96% # Type of FU issued
system.cpu.iq.FU_type_0::SimdFloatCmp               0      0.00%     75.96% # Type of FU issued
system.cpu.iq.FU_type_0::SimdFloatCvt               0      0.00%     75.96% # Type of FU issued
system.cpu.iq.FU_type_0::SimdFloatDiv               0      0.00%     75.96% # Type of FU issued
system.cpu.iq.FU_type_0::SimdFloatMisc              0      0.00%     75.96% # Type of FU issued
system.cpu.iq.FU_type_0::SimdFloatMult              0      0.00%     75.96% # Type of FU issued
system.cpu.iq.FU_type_0::SimdFloatMultAcc            0      0.00%     75.96% # Type of FU issued
system.cpu.iq.FU_type_0::SimdFloatSqrt              0      0.00%     75.96% # Type of FU issued
system.cpu.iq.FU_type_0::MemRead               377976     14.69%     90.65% # Type of FU issued
system.cpu.iq.FU_type_0::MemWrite              239126      9.29%     99.94% # Type of FU issued
system.cpu.iq.FU_type_0::FloatMemRead            1444      0.06%    100.00% # Type of FU issued
system.cpu.iq.FU_type_0::FloatMemWrite            115      0.00%    100.00% # Type of FU issued
system.cpu.iq.FU_type_0::IprAccess                  0      0.00%    100.00% # Type of FU issued
system.cpu.iq.FU_type_0::InstPrefetch               0      0.00%    100.00% # Type of FU issued
system.cpu.iq.FU_type_0::total                2573496                       # Type of FU issued
system.cpu.iq.rate                           1.039053                       # Inst issue rate
system.cpu.iq.fu_busy_cnt                       38274                       # FU busy when requested
system.cpu.iq.fu_busy_rate                   0.014872                       # FU busy rate (busy events/executed inst)
system.cpu.iq.int_inst_queue_reads            7530848                       # Number of integer instruction queue reads
system.cpu.iq.int_inst_queue_writes           4192500                       # Number of integer instruction queue writes
system.cpu.iq.int_inst_queue_wakeup_accesses      2410678                       # Number of integer instruction queue wakeup accesses
system.cpu.iq.fp_inst_queue_reads                9962                       # Number of floating instruction queue reads
system.cpu.iq.fp_inst_queue_writes              11944                       # Number of floating instruction queue writes
system.cpu.iq.fp_inst_queue_wakeup_accesses         4160                       # Number of floating instruction queue wakeup accesses
system.cpu.iq.int_alu_accesses                2572978                       # Number of integer alu accesses
system.cpu.iq.fp_alu_accesses                    4902                       # Number of floating point alu accesses
system.cpu.iew.lsq.thread0.forwLoads            32650                       # Number of loads that had data forwarded from stores
system.cpu.iew.lsq.thread0.invAddrLoads             0                       # Number of loads ignored due to an invalid address
system.cpu.iew.lsq.thread0.squashedLoads       175905                       # Number of loads squashed
system.cpu.iew.lsq.thread0.ignoredResponses          686                       # Number of memory responses ignored because the instruction is squashed
system.cpu.iew.lsq.thread0.memOrderViolation         1221                       # Number of memory ordering violations
system.cpu.iew.lsq.thread0.squashedStores        87794                       # Number of stores squashed
system.cpu.iew.lsq.thread0.invAddrSwpfs             0                       # Number of software prefetches ignored due to an invalid address
system.cpu.iew.lsq.thread0.blockedLoads             0                       # Number of blocked loads due to partial load-store forwarding
system.cpu.iew.lsq.thread0.rescheduledLoads         1335                       # Number of loads that were rescheduled
system.cpu.iew.lsq.thread0.cacheBlocked          2280                       # Number of times an access to memory failed due to the cache being blocked
system.cpu.iew.iewIdleCycles                        0                       # Number of cycles IEW is idle
system.cpu.iew.iewSquashCycles                  54994                       # Number of cycles IEW is squashing
system.cpu.iew.iewBlockCycles                  293206                       # Number of cycles IEW is blocking
system.cpu.iew.iewUnblockCycles                138068                       # Number of cycles IEW is unblocking
system.cpu.iew.iewDispatchedInsts             2990880                       # Number of instructions dispatched to IQ
system.cpu.iew.iewDispSquashedInsts              4785                       # Number of squashed instructions skipped by dispatch
system.cpu.iew.iewDispLoadInsts                435886                       # Number of dispatched load instructions
system.cpu.iew.iewDispStoreInsts               278930                       # Number of dispatched store instructions
system.cpu.iew.iewDispNonSpecInsts              15278                       # Number of dispatched non-speculative instructions
system.cpu.iew.iewIQFullEvents                   1142                       # Number of times the IQ has become full, causing a stall
system.cpu.iew.iewLSQFullEvents                136517                       # Number of times the LSQ has become full, causing a stall
system.cpu.iew.memOrderViolationEvents           1221                       # Number of memory order violations
system.cpu.iew.predictedTakenIncorrect          16465                       # Number of branches that were predicted taken incorrectly
system.cpu.iew.predictedNotTakenIncorrect        51389                       # Number of branches that were predicted not taken incorrectly
system.cpu.iew.branchMispredicts                67854                       # Number of branch mispredicts detected at execute
system.cpu.iew.iewExecutedInsts               2459495                       # Number of executed instructions
system.cpu.iew.iewExecLoadInsts                350290                       # Number of load instructions executed
system.cpu.iew.iewExecSquashedInsts            103262                       # Number of squashed instructions skipped in execute
system.cpu.iew.exec_swp                             0                       # number of swp insts executed
system.cpu.iew.exec_nop                             0                       # number of nop insts executed
system.cpu.iew.exec_refs                       576643                       # number of memory reference insts executed
system.cpu.iew.exec_branches                   244908                       # Number of branches executed
system.cpu.iew.exec_stores                     226353                       # Number of stores executed
system.cpu.iew.exec_rate                     0.993025                       # Inst execution rate
system.cpu.iew.wb_sent                        2431706                       # cumulative count of insts sent to commit
system.cpu.iew.wb_count                       2414838                       # cumulative count of insts written-back
system.cpu.iew.wb_producers                   1593729                       # num instructions producing a value
system.cpu.iew.wb_consumers                   2557687                       # num instructions consuming a value
system.cpu.iew.wb_rate                       0.974994                       # insts written-back per cycle
system.cpu.iew.wb_fanout                     0.623113                       # average fanout of values written-back
system.cpu.commit.commitSquashedInsts         1211340                       # The number of squashed insts skipped by commit
system.cpu.commit.commitNonSpecStalls           11736                       # The number of times commit has been forced to stall to communicate backwards
system.cpu.commit.branchMispredicts             52458                       # The number of times a branch was mispredicted
system.cpu.commit.committed_per_cycle::samples      2138920                       # Number of insts commited each cycle
system.cpu.commit.committed_per_cycle::mean     0.831482                       # Number of insts commited each cycle
system.cpu.commit.committed_per_cycle::stdev     1.912292                       # Number of insts commited each cycle
system.cpu.commit.committed_per_cycle::underflows            0      0.00%      0.00% # Number of insts commited each cycle
system.cpu.commit.committed_per_cycle::0      1600691     74.84%     74.84% # Number of insts commited each cycle
system.cpu.commit.committed_per_cycle::1       191916      8.97%     83.81% # Number of insts commited each cycle
system.cpu.commit.committed_per_cycle::2        78435      3.67%     87.48% # Number of insts commited each cycle
system.cpu.commit.committed_per_cycle::3        80396      3.76%     91.23% # Number of insts commited each cycle
system.cpu.commit.committed_per_cycle::4        45137      2.11%     93.35% # Number of insts commited each cycle
system.cpu.commit.committed_per_cycle::5        27585      1.29%     94.63% # Number of insts commited each cycle
system.cpu.commit.committed_per_cycle::6        17809      0.83%     95.47% # Number of insts commited each cycle
system.cpu.commit.committed_per_cycle::7        12435      0.58%     96.05% # Number of insts commited each cycle
system.cpu.commit.committed_per_cycle::8        84516      3.95%    100.00% # Number of insts commited each cycle
system.cpu.commit.committed_per_cycle::overflows            0      0.00%    100.00% # Number of insts commited each cycle
system.cpu.commit.committed_per_cycle::min_value            0                       # Number of insts commited each cycle
system.cpu.commit.committed_per_cycle::max_value            8                       # Number of insts commited each cycle
system.cpu.commit.committed_per_cycle::total      2138920                       # Number of insts commited each cycle
system.cpu.commit.committedInsts               949526                       # Number of instructions committed
system.cpu.commit.committedOps                1778474                       # Number of ops (including micro ops) committed
system.cpu.commit.swp_count                         0                       # Number of s/w prefetches committed
system.cpu.commit.refs                         451110                       # Number of memory references committed
system.cpu.commit.loads                        259974                       # Number of loads committed
system.cpu.commit.membars                        1162                       # Number of memory barriers committed
system.cpu.commit.branches                     190766                       # Number of branches committed
system.cpu.commit.vec_insts                         0                       # Number of committed Vector instructions.
system.cpu.commit.fp_insts                       2440                       # Number of committed floating point instructions.
system.cpu.commit.int_insts                   1760671                       # Number of committed integer instructions.
system.cpu.commit.function_calls                19997                       # Number of function calls committed.
system.cpu.commit.op_class_0::No_OpClass        14758      0.83%      0.83% # Class of committed instruction
system.cpu.commit.op_class_0::IntAlu          1307840     73.54%     74.37% # Class of committed instruction
system.cpu.commit.op_class_0::IntMult            1272      0.07%     74.44% # Class of committed instruction
system.cpu.commit.op_class_0::IntDiv             1648      0.09%     74.53% # Class of committed instruction
system.cpu.commit.op_class_0::FloatAdd           1846      0.10%     74.63% # Class of committed instruction
system.cpu.commit.op_class_0::FloatCmp              0      0.00%     74.63% # Class of committed instruction
system.cpu.commit.op_class_0::FloatCvt              0      0.00%     74.63% # Class of committed instruction
system.cpu.commit.op_class_0::FloatMult             0      0.00%     74.63% # Class of committed instruction
system.cpu.commit.op_class_0::FloatMultAcc            0      0.00%     74.63% # Class of committed instruction
system.cpu.commit.op_class_0::FloatDiv              0      0.00%     74.63% # Class of committed instruction
system.cpu.commit.op_class_0::FloatMisc             0      0.00%     74.63% # Class of committed instruction
system.cpu.commit.op_class_0::FloatSqrt             0      0.00%     74.63% # Class of committed instruction
system.cpu.commit.op_class_0::SimdAdd               0      0.00%     74.63% # Class of committed instruction
system.cpu.commit.op_class_0::SimdAddAcc            0      0.00%     74.63% # Class of committed instruction
system.cpu.commit.op_class_0::SimdAlu               0      0.00%     74.63% # Class of committed instruction
system.cpu.commit.op_class_0::SimdCmp               0      0.00%     74.63% # Class of committed instruction
system.cpu.commit.op_class_0::SimdCvt               0      0.00%     74.63% # Class of committed instruction
system.cpu.commit.op_class_0::SimdMisc              0      0.00%     74.63% # Class of committed instruction
system.cpu.commit.op_class_0::SimdMult              0      0.00%     74.63% # Class of committed instruction
system.cpu.commit.op_class_0::SimdMultAcc            0      0.00%     74.63% # Class of committed instruction
system.cpu.commit.op_class_0::SimdShift             0      0.00%     74.63% # Class of committed instruction
system.cpu.commit.op_class_0::SimdShiftAcc            0      0.00%     74.63% # Class of committed instruction
system.cpu.commit.op_class_0::SimdSqrt              0      0.00%     74.63% # Class of committed instruction
system.cpu.commit.op_class_0::SimdFloatAdd            0      0.00%     74.63% # Class of committed instruction
system.cpu.commit.op_class_0::SimdFloatAlu            0      0.00%     74.63% # Class of committed instruction
system.cpu.commit.op_class_0::SimdFloatCmp            0      0.00%     74.63% # Class of committed instruction
system.cpu.commit.op_class_0::SimdFloatCvt            0      0.00%     74.63% # Class of committed instruction
system.cpu.commit.op_class_0::SimdFloatDiv            0      0.00%     74.63% # Class of committed instruction
system.cpu.commit.op_class_0::SimdFloatMisc            0      0.00%     74.63% # Class of committed instruction
system.cpu.commit.op_class_0::SimdFloatMult            0      0.00%     74.63% # Class of committed instruction
system.cpu.commit.op_class_0::SimdFloatMultAcc            0      0.00%     74.63% # Class of committed instruction
system.cpu.commit.op_class_0::SimdFloatSqrt            0      0.00%     74.63% # Class of committed instruction
system.cpu.commit.op_class_0::MemRead          259514     14.59%     89.23% # Class of committed instruction
system.cpu.commit.op_class_0::MemWrite         191136     10.75%     99.97% # Class of committed instruction
system.cpu.commit.op_class_0::FloatMemRead          460      0.03%    100.00% # Class of committed instruction
system.cpu.commit.op_class_0::FloatMemWrite            0      0.00%    100.00% # Class of committed instruction
system.cpu.commit.op_class_0::IprAccess             0      0.00%    100.00% # Class of committed instruction
system.cpu.commit.op_class_0::InstPrefetch            0      0.00%    100.00% # Class of committed instruction
system.cpu.commit.op_class_0::total           1778474                       # Class of committed instruction
system.cpu.commit.bw_lim_events                 84516                       # number cycles where commit BW limit reached
system.cpu.rob.rob_reads                      5038682                       # The number of ROB reads
system.cpu.rob.rob_writes                     6180154                       # The number of ROB writes
system.cpu.timesIdled                            7265                       # Number of times that the entire CPU went into an idle state and unscheduled itself
system.cpu.idleCycles                          140818                       # Total number of cycles that the CPU has spent unscheduled due to idling
system.cpu.committedInsts                      949526                       # Number of Instructions Simulated
system.cpu.committedOps                       1778474                       # Number of Ops (including micro ops) Simulated
system.cpu.cpi                               2.608429                       # CPI: Cycles Per Instruction
system.cpu.cpi_total                         2.608429                       # CPI: Total CPI of All Threads
system.cpu.ipc                               0.383373                       # IPC: Instructions Per Cycle
system.cpu.ipc_total                         0.383373                       # IPC: Total IPC of All Threads
system.cpu.int_regfile_reads                  3632549                       # number of integer regfile reads
system.cpu.int_regfile_writes                 1925705                       # number of integer regfile writes
system.cpu.fp_regfile_reads                      6634                       # number of floating regfile reads
system.cpu.fp_regfile_writes                     3525                       # number of floating regfile writes
system.cpu.cc_regfile_reads                   1105602                       # number of cc regfile reads
system.cpu.cc_regfile_writes                   715399                       # number of cc regfile writes
system.cpu.misc_regfile_reads                 1113459                       # number of misc regfile reads
system.cpu.misc_regfile_writes                  13089                       # number of misc regfile writes
system.cpu.dcache.tags.pwrStateResidencyTicks::UNDEFINED 4787213832500                       # Cumulative time (in ticks) in various power states
system.cpu.dcache.tags.replacements             21292                       # number of replacements
system.cpu.dcache.tags.tagsinuse                 1024                       # Cycle average of tags in use
system.cpu.dcache.tags.total_refs              485933                       # Total number of references to valid blocks.
system.cpu.dcache.tags.sampled_refs             21292                       # Sample count of references to valid blocks.
system.cpu.dcache.tags.avg_refs             22.822328                       # Average number of references to valid blocks.
system.cpu.dcache.tags.warmup_cycle                 0                       # Cycle when the warmup percentage was hit.
system.cpu.dcache.tags.occ_blocks::cpu.data         1024                       # Average occupied blocks per requestor
system.cpu.dcache.tags.occ_percent::cpu.data            1                       # Average percentage of cache occupancy
system.cpu.dcache.tags.occ_percent::total            1                       # Average percentage of cache occupancy
system.cpu.dcache.tags.occ_task_id_blocks::1024         1024                       # Occupied blocks per task id
system.cpu.dcache.tags.age_task_id_blocks_1024::0           46                       # Occupied blocks per task id
system.cpu.dcache.tags.age_task_id_blocks_1024::1          743                       # Occupied blocks per task id
system.cpu.dcache.tags.age_task_id_blocks_1024::2          235                       # Occupied blocks per task id
system.cpu.dcache.tags.occ_task_id_percent::1024            1                       # Percentage of cache occupancy per task id
system.cpu.dcache.tags.tag_accesses           1030826                       # Number of tag accesses
system.cpu.dcache.tags.data_accesses          1030826                       # Number of data accesses
system.cpu.dcache.pwrStateResidencyTicks::UNDEFINED 4787213832500                       # Cumulative time (in ticks) in various power states
system.cpu.dcache.ReadReq_hits::cpu.data       287425                       # number of ReadReq hits
system.cpu.dcache.ReadReq_hits::total          287425                       # number of ReadReq hits
system.cpu.dcache.WriteReq_hits::cpu.data       182034                       # number of WriteReq hits
system.cpu.dcache.WriteReq_hits::total         182034                       # number of WriteReq hits
system.cpu.dcache.SoftPFReq_hits::cpu.data          563                       # number of SoftPFReq hits
system.cpu.dcache.SoftPFReq_hits::total           563                       # number of SoftPFReq hits
system.cpu.dcache.demand_hits::cpu.data        469459                       # number of demand (read+write) hits
system.cpu.dcache.demand_hits::total           469459                       # number of demand (read+write) hits
system.cpu.dcache.overall_hits::cpu.data       470022                       # number of overall hits
system.cpu.dcache.overall_hits::total          470022                       # number of overall hits
system.cpu.dcache.ReadReq_misses::cpu.data        22782                       # number of ReadReq misses
system.cpu.dcache.ReadReq_misses::total         22782                       # number of ReadReq misses
system.cpu.dcache.WriteReq_misses::cpu.data         9043                       # number of WriteReq misses
system.cpu.dcache.WriteReq_misses::total         9043                       # number of WriteReq misses
system.cpu.dcache.SoftPFReq_misses::cpu.data         2920                       # number of SoftPFReq misses
system.cpu.dcache.SoftPFReq_misses::total         2920                       # number of SoftPFReq misses
system.cpu.dcache.demand_misses::cpu.data        31825                       # number of demand (read+write) misses
system.cpu.dcache.demand_misses::total          31825                       # number of demand (read+write) misses
system.cpu.dcache.overall_misses::cpu.data        34745                       # number of overall misses
system.cpu.dcache.overall_misses::total         34745                       # number of overall misses
system.cpu.dcache.ReadReq_miss_latency::cpu.data    285510500                       # number of ReadReq miss cycles
system.cpu.dcache.ReadReq_miss_latency::total    285510500                       # number of ReadReq miss cycles
system.cpu.dcache.WriteReq_miss_latency::cpu.data    159243486                       # number of WriteReq miss cycles
system.cpu.dcache.WriteReq_miss_latency::total    159243486                       # number of WriteReq miss cycles
system.cpu.dcache.demand_miss_latency::cpu.data    444753986                       # number of demand (read+write) miss cycles
system.cpu.dcache.demand_miss_latency::total    444753986                       # number of demand (read+write) miss cycles
system.cpu.dcache.overall_miss_latency::cpu.data    444753986                       # number of overall miss cycles
system.cpu.dcache.overall_miss_latency::total    444753986                       # number of overall miss cycles
system.cpu.dcache.ReadReq_accesses::cpu.data       310207                       # number of ReadReq accesses(hits+misses)
system.cpu.dcache.ReadReq_accesses::total       310207                       # number of ReadReq accesses(hits+misses)
[...]
system.l2cache.demand_mshr_misses::total         1524                       # number of demand (read+write) MSHR misses
system.l2cache.overall_mshr_misses::cpu.inst          493                       # number of overall MSHR misses
system.l2cache.overall_mshr_misses::cpu.data         1031                       # number of overall MSHR misses
system.l2cache.overall_mshr_misses::total         1524                       # number of overall MSHR misses
system.l2cache.ReadReq_mshr_uncacheable::cpu.data          365                       # number of ReadReq MSHR uncacheable
system.l2cache.ReadReq_mshr_uncacheable::total          365                       # number of ReadReq MSHR uncacheable
system.l2cache.WriteReq_mshr_uncacheable::cpu.data          135                       # number of WriteReq MSHR uncacheable
system.l2cache.WriteReq_mshr_uncacheable::total          135                       # number of WriteReq MSHR uncacheable
system.l2cache.overall_mshr_uncacheable_misses::cpu.data          500                       # number of overall MSHR uncacheable misses
system.l2cache.overall_mshr_uncacheable_misses::total          500                       # number of overall MSHR uncacheable misses
system.l2cache.UpgradeReq_mshr_miss_latency::cpu.data     12369500                       # number of UpgradeReq MSHR miss cycles
system.l2cache.UpgradeReq_mshr_miss_latency::total     12369500                       # number of UpgradeReq MSHR miss cycles
system.l2cache.ReadExReq_mshr_miss_latency::cpu.data     44870500                       # number of ReadExReq MSHR miss cycles
system.l2cache.ReadExReq_mshr_miss_latency::total     44870500                       # number of ReadExReq MSHR miss cycles
system.l2cache.ReadSharedReq_mshr_miss_latency::cpu.inst     40158500                       # number of ReadSharedReq MSHR miss cycles
system.l2cache.ReadSharedReq_mshr_miss_latency::cpu.data     25010500                       # number of ReadSharedReq MSHR miss cycles
system.l2cache.ReadSharedReq_mshr_miss_latency::total     65169000                       # number of ReadSharedReq MSHR miss cycles
system.l2cache.demand_mshr_miss_latency::cpu.inst     40158500                       # number of demand (read+write) MSHR miss cycles
system.l2cache.demand_mshr_miss_latency::cpu.data     69881000                       # number of demand (read+write) MSHR miss cycles
system.l2cache.demand_mshr_miss_latency::total    110039500                       # number of demand (read+write) MSHR miss cycles
system.l2cache.overall_mshr_miss_latency::cpu.inst     40158500                       # number of overall MSHR miss cycles
system.l2cache.overall_mshr_miss_latency::cpu.data     69881000                       # number of overall MSHR miss cycles
system.l2cache.overall_mshr_miss_latency::total    110039500                       # number of overall MSHR miss cycles
system.l2cache.ReadReq_mshr_uncacheable_latency::cpu.data     79752500                       # number of ReadReq MSHR uncacheable cycles
system.l2cache.ReadReq_mshr_uncacheable_latency::total     79752500                       # number of ReadReq MSHR uncacheable cycles
system.l2cache.overall_mshr_uncacheable_latency::cpu.data     79752500                       # number of overall MSHR uncacheable cycles
system.l2cache.overall_mshr_uncacheable_latency::total     79752500                       # number of overall MSHR uncacheable cycles
system.l2cache.UpgradeReq_mshr_miss_rate::cpu.data     0.949777                       # mshr miss rate for UpgradeReq accesses
system.l2cache.UpgradeReq_mshr_miss_rate::total     0.949777                       # mshr miss rate for UpgradeReq accesses
system.l2cache.ReadExReq_mshr_miss_rate::cpu.data     0.056930                       # mshr miss rate for ReadExReq accesses
system.l2cache.ReadExReq_mshr_miss_rate::total     0.056930                       # mshr miss rate for ReadExReq accesses
system.l2cache.ReadSharedReq_mshr_miss_rate::cpu.inst     0.015399                       # mshr miss rate for ReadSharedReq accesses
system.l2cache.ReadSharedReq_mshr_miss_rate::cpu.data     0.012711                       # mshr miss rate for ReadSharedReq accesses
system.l2cache.ReadSharedReq_mshr_miss_rate::total     0.014356                       # mshr miss rate for ReadSharedReq accesses
system.l2cache.demand_mshr_miss_rate::cpu.inst     0.015399                       # mshr miss rate for demand accesses
system.l2cache.demand_mshr_miss_rate::cpu.data     0.030435                       # mshr miss rate for demand accesses
system.l2cache.demand_mshr_miss_rate::total     0.023129                       # mshr miss rate for demand accesses
system.l2cache.overall_mshr_miss_rate::cpu.inst     0.015399                       # mshr miss rate for overall accesses
system.l2cache.overall_mshr_miss_rate::cpu.data     0.030435                       # mshr miss rate for overall accesses
system.l2cache.overall_mshr_miss_rate::total     0.023129                       # mshr miss rate for overall accesses
system.l2cache.UpgradeReq_avg_mshr_miss_latency::cpu.data 14535.252644                       # average UpgradeReq mshr miss latency
system.l2cache.UpgradeReq_avg_mshr_miss_latency::total 14535.252644                       # average UpgradeReq mshr miss latency
system.l2cache.ReadExReq_avg_mshr_miss_latency::cpu.data 58047.218629                       # average ReadExReq mshr miss latency
system.l2cache.ReadExReq_avg_mshr_miss_latency::total 58047.218629                       # average ReadExReq mshr miss latency
system.l2cache.ReadSharedReq_avg_mshr_miss_latency::cpu.inst 81457.403651                       # average ReadSharedReq mshr miss latency
system.l2cache.ReadSharedReq_avg_mshr_miss_latency::cpu.data 96939.922481                       # average ReadSharedReq mshr miss latency
system.l2cache.ReadSharedReq_avg_mshr_miss_latency::total 86776.298269                       # average ReadSharedReq mshr miss latency
system.l2cache.demand_avg_mshr_miss_latency::cpu.inst 81457.403651                       # average overall mshr miss latency
system.l2cache.demand_avg_mshr_miss_latency::cpu.data 67779.825412                       # average overall mshr miss latency
system.l2cache.demand_avg_mshr_miss_latency::total 72204.396325                       # average overall mshr miss latency
system.l2cache.overall_avg_mshr_miss_latency::cpu.inst 81457.403651                       # average overall mshr miss latency
system.l2cache.overall_avg_mshr_miss_latency::cpu.data 67779.825412                       # average overall mshr miss latency
system.l2cache.overall_avg_mshr_miss_latency::total 72204.396325                       # average overall mshr miss latency
system.l2cache.ReadReq_avg_mshr_uncacheable_latency::cpu.data       218500                       # average ReadReq mshr uncacheable latency
system.l2cache.ReadReq_avg_mshr_uncacheable_latency::total       218500                       # average ReadReq mshr uncacheable latency
system.l2cache.overall_avg_mshr_uncacheable_latency::cpu.data       159505                       # average overall mshr uncacheable latency
system.l2cache.overall_avg_mshr_uncacheable_latency::total       159505                       # average overall mshr uncacheable latency
system.membus.snoop_filter.tot_requests         36351                       # Total number of requests made to the snoop filter.
system.membus.snoop_filter.hit_single_requests        34967                       # Number of requests hitting in the snoop filter with a single holder of the requested data.
system.membus.snoop_filter.hit_multi_requests            0                       # Number of requests hitting in the snoop filter with multiple (>1) holders of the requested data.
system.membus.snoop_filter.tot_snoops               0                       # Total number of snoops made to the snoop filter.
system.membus.snoop_filter.hit_single_snoops            0                       # Number of snoops hitting in the snoop filter with a single holder of the requested data.
system.membus.snoop_filter.hit_multi_snoops            0                       # Number of snoops hitting in the snoop filter with multiple (>1) holders of the requested data.
system.membus.pwrStateResidencyTicks::UNDEFINED 4787848697500                       # Cumulative time (in ticks) in various power states
system.membus.trans_dist::ReadReq               36251                       # Transaction distribution
system.membus.trans_dist::ReadResp              37002                       # Transaction distribution
system.membus.trans_dist::WriteReq                135                       # Transaction distribution
system.membus.trans_dist::WriteResp               135                       # Transaction distribution
system.membus.trans_dist::WritebackDirty          550                       # Transaction distribution
system.membus.trans_dist::CleanEvict              645                       # Transaction distribution
system.membus.trans_dist::UpgradeReq              992                       # Transaction distribution
system.membus.trans_dist::ReadExReq               633                       # Transaction distribution
system.membus.trans_dist::ReadExResp              633                       # Transaction distribution
system.membus.trans_dist::ReadSharedReq           751                       # Transaction distribution
system.membus.trans_dist::MessageReq              123                       # Transaction distribution
system.membus.trans_dist::MessageResp             123                       # Transaction distribution
system.membus.pkt_count_system.apicbridge.master::system.cpu.interrupts.int_slave          246                       # Packet count per connected master and slave (bytes)
system.membus.pkt_count_system.apicbridge.master::total          246                       # Packet count per connected master and slave (bytes)
system.membus.pkt_count_system.l2cache.mem_side::system.bridge.slave          984                       # Packet count per connected master and slave (bytes)
system.membus.pkt_count_system.l2cache.mem_side::system.mem_cntrl.port         4955                       # Packet count per connected master and slave (bytes)
system.membus.pkt_count_system.l2cache.mem_side::system.cpu.interrupts.pio           16                       # Packet count per connected master and slave (bytes)
system.membus.pkt_count_system.l2cache.mem_side::total         5955                       # Packet count per connected master and slave (bytes)
system.membus.pkt_count_system.cpu.itb.walker.port::system.mem_cntrl.port         7824                       # Packet count per connected master and slave (bytes)
system.membus.pkt_count_system.cpu.itb.walker.port::total         7824                       # Packet count per connected master and slave (bytes)
system.membus.pkt_count_system.cpu.dtb.walker.port::system.mem_cntrl.port        31223                       # Packet count per connected master and slave (bytes)
system.membus.pkt_count_system.cpu.dtb.walker.port::total        31223                       # Packet count per connected master and slave (bytes)
system.membus.pkt_count::total                  45248                       # Packet count per connected master and slave (bytes)
system.membus.pkt_size_system.apicbridge.master::system.cpu.interrupts.int_slave          492                       # Cumulative packet size per connected master and slave (bytes)
system.membus.pkt_size_system.apicbridge.master::total          492                       # Cumulative packet size per connected master and slave (bytes)
system.membus.pkt_size_system.l2cache.mem_side::system.bridge.slave          492                       # Cumulative packet size per connected master and slave (bytes)
system.membus.pkt_size_system.l2cache.mem_side::system.mem_cntrl.port       123776                       # Cumulative packet size per connected master and slave (bytes)
system.membus.pkt_size_system.l2cache.mem_side::system.cpu.interrupts.pio           32                       # Cumulative packet size per connected master and slave (bytes)
system.membus.pkt_size_system.l2cache.mem_side::total       124300                       # Cumulative packet size per connected master and slave (bytes)
system.membus.pkt_size_system.cpu.itb.walker.port::system.mem_cntrl.port          464                       # Cumulative packet size per connected master and slave (bytes)
system.membus.pkt_size_system.cpu.itb.walker.port::total          464                       # Cumulative packet size per connected master and slave (bytes)
system.membus.pkt_size_system.cpu.dtb.walker.port::system.mem_cntrl.port        24824                       # Cumulative packet size per connected master and slave (bytes)
system.membus.pkt_size_system.cpu.dtb.walker.port::total        24824                       # Cumulative packet size per connected master and slave (bytes)
system.membus.pkt_size::total                  150080                       # Cumulative packet size per connected master and slave (bytes)
system.membus.snoops                            32726                       # Total snoops (count)
system.membus.snoopTraffic                     261800                       # Total snoop traffic (bytes)
system.membus.snoop_fanout::samples             38885                       # Request fanout histogram
system.membus.snoop_fanout::mean             0.842999                       # Request fanout histogram
system.membus.snoop_fanout::stdev            0.363807                       # Request fanout histogram
system.membus.snoop_fanout::underflows              0      0.00%      0.00% # Request fanout histogram
system.membus.snoop_fanout::0                    6105     15.70%     15.70% # Request fanout histogram
system.membus.snoop_fanout::1                   32780     84.30%    100.00% # Request fanout histogram
system.membus.snoop_fanout::2                       0      0.00%    100.00% # Request fanout histogram
system.membus.snoop_fanout::overflows               0      0.00%    100.00% # Request fanout histogram
system.membus.snoop_fanout::min_value               0                       # Request fanout histogram
system.membus.snoop_fanout::max_value               1                       # Request fanout histogram
system.membus.snoop_fanout::total               38885                       # Request fanout histogram
system.membus.reqLayer0.occupancy              309500                       # Layer occupancy (ticks)
system.membus.reqLayer0.utilization               0.0                       # Layer utilization (%)
system.membus.reqLayer1.occupancy            20828000                       # Layer occupancy (ticks)
system.membus.reqLayer1.utilization               1.1                       # Layer utilization (%)
system.membus.reqLayer2.occupancy                8000                       # Layer occupancy (ticks)
system.membus.reqLayer2.utilization               0.0                       # Layer utilization (%)
system.membus.reqLayer3.occupancy              123000                       # Layer occupancy (ticks)
system.membus.reqLayer3.utilization               0.0                       # Layer utilization (%)
system.membus.respLayer1.occupancy              61500                       # Layer occupancy (ticks)
system.membus.respLayer1.utilization              0.0                       # Layer utilization (%)
system.membus.respLayer3.occupancy            4149750                       # Layer occupancy (ticks)
system.membus.respLayer3.utilization              0.2                       # Layer utilization (%)
system.membus.respLayer4.occupancy            7938924                       # Layer occupancy (ticks)
system.membus.respLayer4.utilization              0.4                       # Layer utilization (%)
system.membus.respLayer5.occupancy           28807649                       # Layer occupancy (ticks)
system.membus.respLayer5.utilization              1.5                       # Layer utilization (%)
system.membus.badaddr_responder.pwrStateResidencyTicks::UNDEFINED 4787848697500                       # Cumulative time (in ticks) in various power states
system.pc.behind_pci.pwrStateResidencyTicks::UNDEFINED 4787848697500                       # Cumulative time (in ticks) in various power states
system.pc.com_1.pwrStateResidencyTicks::UNDEFINED 4787848697500                       # Cumulative time (in ticks) in various power states
system.pc.fake_com_2.pwrStateResidencyTicks::UNDEFINED 4787848697500                       # Cumulative time (in ticks) in various power states
system.pc.fake_com_3.pwrStateResidencyTicks::UNDEFINED 4787848697500                       # Cumulative time (in ticks) in various power states
system.pc.fake_com_4.pwrStateResidencyTicks::UNDEFINED 4787848697500                       # Cumulative time (in ticks) in various power states
system.pc.fake_floppy.pwrStateResidencyTicks::UNDEFINED 4787848697500                       # Cumulative time (in ticks) in various power states
system.pc.i_dont_exist1.pwrStateResidencyTicks::UNDEFINED 4787848697500                       # Cumulative time (in ticks) in various power states
system.pc.i_dont_exist2.pwrStateResidencyTicks::UNDEFINED 4787848697500                       # Cumulative time (in ticks) in various power states
system.pc.pci_host.pwrStateResidencyTicks::UNDEFINED 4787848697500                       # Cumulative time (in ticks) in various power states
system.pc.south_bridge.cmos.pwrStateResidencyTicks::UNDEFINED 4787848697500                       # Cumulative time (in ticks) in various power states
system.pc.south_bridge.dma1.pwrStateResidencyTicks::UNDEFINED 4787848697500                       # Cumulative time (in ticks) in various power states
system.pc.south_bridge.pic2.pwrStateResidencyTicks::UNDEFINED 4787848697500                       # Cumulative time (in ticks) in various power states
system.pc.south_bridge.pic1.pwrStateResidencyTicks::UNDEFINED 4787848697500                       # Cumulative time (in ticks) in various power states
system.pc.south_bridge.io_apic.pwrStateResidencyTicks::UNDEFINED 4787848697500                       # Cumulative time (in ticks) in various power states
system.pc.south_bridge.keyboard.pwrStateResidencyTicks::UNDEFINED 4787848697500                       # Cumulative time (in ticks) in various power states
system.pc.south_bridge.pit.pwrStateResidencyTicks::UNDEFINED 4787848697500                       # Cumulative time (in ticks) in various power states
system.pc.south_bridge.speaker.pwrStateResidencyTicks::UNDEFINED 4787848697500                       # Cumulative time (in ticks) in various power states
system.pc.south_bridge.ide.disks.dma_read_full_pages            0                       # Number of full page size DMA reads (not PRD).
system.pc.south_bridge.ide.disks.dma_read_bytes            0                       # Number of bytes transfered via DMA reads (not PRD).
system.pc.south_bridge.ide.disks.dma_read_txs            0                       # Number of DMA read transactions (not PRD).
system.pc.south_bridge.ide.disks.dma_write_full_pages            0                       # Number of full page size DMA writes.
system.pc.south_bridge.ide.disks.dma_write_bytes            0                       # Number of bytes transfered via DMA writes.
system.pc.south_bridge.ide.disks.dma_write_txs            0                       # Number of DMA write transactions.
system.pc.south_bridge.ide.pwrStateResidencyTicks::UNDEFINED 4787848697500                       # Cumulative time (in ticks) in various power states
system.cpu.kern.inst.arm                            0                       # number of arm instructions executed
system.cpu.kern.inst.quiesce                        0                       # number of quiesce instructions executed

---------- End Simulation Statistics   ----------
